[H]c1nc(N2C([H])([H])C([H])([H])N(c3nc(C(=O)N([H])c4c([H])c([H])c(C(F)(F)F)c([H])c4[H])nc(N4C([H])([H])C([H])([H])N(C([H])([H])[H])C([H])([H])C4([H])[H])c3[H])C([H])([H])C2([H])[H])c2c([H])c([H])n([H])c2n1


 43 48  0  0  0  0  0  0  0  0999 V2000
  -91.6366   28.4321   -1.8797 C   0  0  0  0  0  0  0  0  0  0  0  0
  -90.4032   28.5391   -1.3202 C   0  0  0  0  0  0  0  0  0  0  0  0
  -89.6443   29.6980   -1.5364 C   0  0  0  0  0  0  0  0  0  0  0  0
  -90.1711   30.6708   -2.2981 N   0  0  0  0  0  0  0  0  0  0  0  0
  -91.3754   30.5739   -2.8417 C   0  0  0  0  0  0  0  0  0  0  0  0
  -92.1012   29.4297   -2.6152 N   0  0  0  0  0  0  0  0  0  0  0  0
  -94.2189   23.6770   -2.8811 C   0  0  0  0  0  0  0  0  0  0  0  0
  -93.4122   24.8961   -2.7783 N   0  0  0  0  0  0  0  0  0  0  0  0
  -94.3676   25.9666   -2.6248 C   0  0  0  0  0  0  0  0  0  0  0  0
  -93.7935   27.2574   -2.1894 C   0  0  0  0  0  0  0  0  0  0  0  0
  -92.4117   27.2069   -1.7332 N   0  0  0  0  0  0  0  0  0  0  0  0
  -91.8782   26.0295   -1.1789 C   0  0  0  0  0  0  0  0  0  0  0  0
  -92.5542   24.7540   -1.6336 C   0  0  0  0  0  0  0  0  0  0  0  0
  -88.3976   29.7604   -0.8981 N   0  0  0  0  0  0  0  0  0  0  0  0
  -88.2600   29.4878    0.5205 C   0  0  0  0  0  0  0  0  0  0  0  0
  -86.8646   28.9557    0.7663 C   0  0  0  0  0  0  0  0  0  0  0  0
  -85.8727   29.8968    0.2400 N   0  0  0  0  0  0  0  0  0  0  0  0
  -86.1990   30.7892   -0.8532 C   0  0  0  0  0  0  0  0  0  0  0  0
  -87.2217   30.0764   -1.7177 C   0  0  0  0  0  0  0  0  0  0  0  0
  -84.5774   29.8605    0.8277 C   0  0  0  0  0  0  0  0  0  0  0  0
  -83.6210   30.7595    0.5280 N   0  0  0  0  0  0  0  0  0  0  0  0
  -82.4226   30.6860    1.1254 C   0  0  0  0  0  0  0  0  0  0  0  0
  -82.1023   29.7409    2.0259 N   0  0  0  0  0  0  0  0  0  0  0  0
  -83.0441   28.8092    2.3530 C   0  0  0  0  0  0  0  0  0  0  0  0
  -83.0027   27.7414    3.1898 N   0  0  0  0  0  0  0  0  0  0  0  0
  -84.2043   27.0978    3.1418 C   0  0  0  0  0  0  0  0  0  0  0  0
  -84.9726   27.8098    2.2534 C   0  0  0  0  0  0  0  0  0  0  0  0
  -84.2729   28.8800    1.7497 C   0  0  0  0  0  0  0  0  0  0  0  0
  -82.1672   27.4811    3.7522 H   0  0  0  0  0  0  0  0  0  0  0  0
  -91.9801   31.5465   -3.7293 C   0  0  0  0  0  0  0  0  0  0  0  0
  -92.2401   32.6744   -3.2392 O   0  0  0  0  0  0  0  0  0  0  0  0
  -92.2985   31.2756   -5.1081 N   0  0  0  0  0  0  0  0  0  0  0  0
  -92.0819   30.3975   -5.5707 H   0  0  0  0  0  0  0  0  0  0  0  0
  -92.9349   32.3384   -5.7942 C   0  0  0  0  0  0  0  0  0  0  0  0
  -92.1808   33.2929   -6.4379 C   0  0  0  0  0  0  0  0  0  0  0  0
  -92.8503   34.2528   -7.1754 C   0  0  0  0  0  0  0  0  0  0  0  0
  -94.2272   34.2486   -7.2594 C   0  0  0  0  0  0  0  0  0  0  0  0
  -94.9402   33.2861   -6.6006 C   0  0  0  0  0  0  0  0  0  0  0  0
  -94.3140   32.3213   -5.8629 C   0  0  0  0  0  0  0  0  0  0  0  0
  -94.9041   35.2638   -8.0804 C   0  0  0  0  0  0  0  0  0  0  0  0
  -95.7759   34.6792   -8.9949 F   0  0  0  0  0  0  0  0  0  0  0  0
  -95.6320   36.1383   -7.2910 F   0  0  0  0  0  0  0  0  0  0  0  0
  -93.9428   35.9517   -8.8105 F   0  0  0  0  0  0  0  0  0  0  0  0
  7  8  1  0  0  0
  8  9  1  0  0  0
  9 10  1  0  0  0
 10 11  1  0  0  0
 11 12  1  0  0  0
 12 13  1  0  0  0
 11  1  1  0  0  0
  1  2  2  0  0  0
  2  3  1  0  0  0
  3  4  2  0  0  0
  4  5  1  0  0  0
  5  6  2  0  0  0
  5 30  1  0  0  0
 30 31  2  0  0  0
 30 32  1  0  0  0
 32 34  1  0  0  0
 34 35  2  0  0  0
 35 36  1  0  0  0
 36 37  2  0  0  0
 37 38  1  0  0  0
 38 39  2  0  0  0
 37 40  1  0  0  0
 40 41  1  0  0  0
 40 42  1  0  0  0
 40 43  1  0  0  0
  3 14  1  0  0  0
 14 15  1  0  0  0
 15 16  1  0  0  0
 16 17  1  0  0  0
 17 18  1  0  0  0
 18 19  1  0  0  0
 17 20  1  0  0  0
 20 21  2  0  0  0
 21 22  1  0  0  0
 22 23  2  0  0  0
 23 24  1  0  0  0
 24 25  1  0  0  0
 25 26  1  0  0  0
 26 27  2  0  0  0
 27 28  1  0  0  0
 13  8  1  0  0  0
  6  1  1  0  0  0
 39 34  1  0  0  0
 19 14  1  0  0  0
 28 20  1  0  0  0
 28 24  2  0  0  0
 32 33  1  0  0  0
 25 29  1  0  0  0
M  END
> <minimizedAffinity>
-4.45195

> <CNNscore>
0.2833472490

> <CNNaffinity>
6.5936799049

> <CNN_VS>
1.8683010340

> <CNNaffinity_variance>
1.0054143667

$$$$
[H]c1nc(N2C([H])([H])C([H])([H])N(c3nc(C(=O)N([H])c4c([H])c([H])c(C(F)(F)F)c([H])c4[H])nc(N4C([H])([H])C([H])([H])N(C([H])([H])[H])C([H])([H])C4([H])[H])c3[H])C([H])([H])C2([H])[H])c2c([H])c([H])n([H])c2n1


 43 48  0  0  0  0  0  0  0  0999 V2000
  -89.3599   29.1620   -1.3698 C   0  0  0  0  0  0  0  0  0  0  0  0
  -89.1296   28.6398   -0.1370 C   0  0  0  0  0  0  0  0  0  0  0  0
  -89.5492   27.3331    0.1495 C   0  0  0  0  0  0  0  0  0  0  0  0
  -90.1712   26.6380   -0.8170 N   0  0  0  0  0  0  0  0  0  0  0  0
  -90.3937   27.1405   -2.0225 C   0  0  0  0  0  0  0  0  0  0  0  0
  -89.9725   28.4224   -2.2807 N   0  0  0  0  0  0  0  0  0  0  0  0
  -86.5598   33.8452   -2.0837 C   0  0  0  0  0  0  0  0  0  0  0  0
  -87.1237   32.5020   -1.9249 N   0  0  0  0  0  0  0  0  0  0  0  0
  -87.9229   32.5696   -0.7253 C   0  0  0  0  0  0  0  0  0  0  0  0
  -88.8425   31.4300   -0.5233 C   0  0  0  0  0  0  0  0  0  0  0  0
  -89.0024   30.5431   -1.6668 N   0  0  0  0  0  0  0  0  0  0  0  0
  -88.8224   31.0183   -2.9783 C   0  0  0  0  0  0  0  0  0  0  0  0
  -87.9089   32.2194   -3.0956 C   0  0  0  0  0  0  0  0  0  0  0  0
  -89.2452   26.8417    1.4269 N   0  0  0  0  0  0  0  0  0  0  0  0
  -88.9116   27.7348    2.5209 C   0  0  0  0  0  0  0  0  0  0  0  0
  -89.3128   27.0646    3.8172 C   0  0  0  0  0  0  0  0  0  0  0  0
  -88.6842   25.7445    3.9110 N   0  0  0  0  0  0  0  0  0  0  0  0
  -88.3168   25.0080    2.7191 C   0  0  0  0  0  0  0  0  0  0  0  0
  -89.3094   25.3905    1.6375 C   0  0  0  0  0  0  0  0  0  0  0  0
  -88.4916   25.2158    5.2179 C   0  0  0  0  0  0  0  0  0  0  0  0
  -87.8840   24.0349    5.4388 N   0  0  0  0  0  0  0  0  0  0  0  0
  -87.7155   23.5935    6.6939 C   0  0  0  0  0  0  0  0  0  0  0  0
  -88.1321   24.2705    7.7778 N   0  0  0  0  0  0  0  0  0  0  0  0
  -88.7561   25.4701    7.5944 C   0  0  0  0  0  0  0  0  0  0  0  0
  -89.2993   26.3473    8.4763 N   0  0  0  0  0  0  0  0  0  0  0  0
  -89.8372   27.3917    7.7834 C   0  0  0  0  0  0  0  0  0  0  0  0
  -89.6008   27.1202    6.4579 C   0  0  0  0  0  0  0  0  0  0  0  0
  -88.9286   25.9300    6.3148 C   0  0  0  0  0  0  0  0  0  0  0  0
  -89.2962   26.2059    9.5069 H   0  0  0  0  0  0  0  0  0  0  0  0
  -91.1180   26.4808   -3.0900 C   0  0  0  0  0  0  0  0  0  0  0  0
  -90.6064   26.5333   -4.2369 O   0  0  0  0  0  0  0  0  0  0  0  0
  -92.3720   25.7983   -2.8972 N   0  0  0  0  0  0  0  0  0  0  0  0
  -92.8181   25.6918   -1.9907 H   0  0  0  0  0  0  0  0  0  0  0  0
  -92.9487   25.2642   -4.0751 C   0  0  0  0  0  0  0  0  0  0  0  0
  -93.2208   23.9177   -4.1600 C   0  0  0  0  0  0  0  0  0  0  0  0
  -93.8740   23.4629   -5.2914 C   0  0  0  0  0  0  0  0  0  0  0  0
  -94.2380   24.3339   -6.2972 C   0  0  0  0  0  0  0  0  0  0  0  0
  -93.9447   25.6637   -6.1770 C   0  0  0  0  0  0  0  0  0  0  0  0
  -93.3012   26.1500   -5.0740 C   0  0  0  0  0  0  0  0  0  0  0  0
  -94.9618   23.8210   -7.4703 C   0  0  0  0  0  0  0  0  0  0  0  0
  -95.7854   22.7510   -7.1315 F   0  0  0  0  0  0  0  0  0  0  0  0
  -95.7500   24.8071   -8.0394 F   0  0  0  0  0  0  0  0  0  0  0  0
  -94.0324   23.3496   -8.3892 F   0  0  0  0  0  0  0  0  0  0  0  0
  7  8  1  0  0  0
  8  9  1  0  0  0
  9 10  1  0  0  0
 10 11  1  0  0  0
 11 12  1  0  0  0
 12 13  1  0  0  0
 11  1  1  0  0  0
  1  2  2  0  0  0
  2  3  1  0  0  0
  3  4  2  0  0  0
  4  5  1  0  0  0
  5  6  2  0  0  0
  5 30  1  0  0  0
 30 31  2  0  0  0
 30 32  1  0  0  0
 32 34  1  0  0  0
 34 35  2  0  0  0
 35 36  1  0  0  0
 36 37  2  0  0  0
 37 38  1  0  0  0
 38 39  2  0  0  0
 37 40  1  0  0  0
 40 41  1  0  0  0
 40 42  1  0  0  0
 40 43  1  0  0  0
  3 14  1  0  0  0
 14 15  1  0  0  0
 15 16  1  0  0  0
 16 17  1  0  0  0
 17 18  1  0  0  0
 18 19  1  0  0  0
 17 20  1  0  0  0
 20 21  2  0  0  0
 21 22  1  0  0  0
 22 23  2  0  0  0
 23 24  1  0  0  0
 24 25  1  0  0  0
 25 26  1  0  0  0
 26 27  2  0  0  0
 27 28  1  0  0  0
 13  8  1  0  0  0
  6  1  1  0  0  0
 39 34  1  0  0  0
 19 14  1  0  0  0
 28 20  1  0  0  0
 28 24  2  0  0  0
 32 33  1  0  0  0
 25 29  1  0  0  0
M  END
> <minimizedAffinity>
-0.23073

> <CNNscore>
0.1943023503

> <CNNaffinity>
6.1658916473

> <CNN_VS>
1.1980472803

> <CNNaffinity_variance>
0.7839961648

$$$$
[H]c1nc(N2C([H])([H])C([H])([H])N(c3nc(C(=O)N([H])c4c([H])c([H])c(C(F)(F)F)c([H])c4[H])nc(N4C([H])([H])C([H])([H])N(C([H])([H])[H])C([H])([H])C4([H])[H])c3[H])C([H])([H])C2([H])[H])c2c([H])c([H])n([H])c2n1


 43 48  0  0  0  0  0  0  0  0999 V2000
  -92.3287   30.3631   -3.4172 C   0  0  0  0  0  0  0  0  0  0  0  0
  -91.1357   30.6715   -2.8449 C   0  0  0  0  0  0  0  0  0  0  0  0
  -90.3606   29.6536   -2.2715 C   0  0  0  0  0  0  0  0  0  0  0  0
  -90.8321   28.3965   -2.3094 N   0  0  0  0  0  0  0  0  0  0  0  0
  -91.9922   28.0895   -2.8708 C   0  0  0  0  0  0  0  0  0  0  0  0
  -92.7340   29.1030   -3.4274 N   0  0  0  0  0  0  0  0  0  0  0  0
  -95.4270   33.4489   -6.7579 C   0  0  0  0  0  0  0  0  0  0  0  0
  -94.6471   32.4696   -5.9963 N   0  0  0  0  0  0  0  0  0  0  0  0
  -93.3767   33.1092   -5.7524 C   0  0  0  0  0  0  0  0  0  0  0  0
  -92.5301   32.4477   -4.7371 C   0  0  0  0  0  0  0  0  0  0  0  0
  -93.1867   31.4131   -3.9507 N   0  0  0  0  0  0  0  0  0  0  0  0
  -94.5747   31.4500   -3.7266 C   0  0  0  0  0  0  0  0  0  0  0  0
  -95.3662   32.1905   -4.7831 C   0  0  0  0  0  0  0  0  0  0  0  0
  -89.1230   30.0341   -1.7336 N   0  0  0  0  0  0  0  0  0  0  0  0
  -88.8788   31.3925   -1.2858 C   0  0  0  0  0  0  0  0  0  0  0  0
  -87.8361   31.3484   -0.1896 C   0  0  0  0  0  0  0  0  0  0  0  0
  -86.6387   30.6532   -0.6688 N   0  0  0  0  0  0  0  0  0  0  0  0
  -86.7240   29.6617   -1.7213 C   0  0  0  0  0  0  0  0  0  0  0  0
  -88.0858   29.0039   -1.6019 C   0  0  0  0  0  0  0  0  0  0  0  0
  -85.4099   30.9726   -0.0265 C   0  0  0  0  0  0  0  0  0  0  0  0
  -84.7749   32.1438   -0.2201 N   0  0  0  0  0  0  0  0  0  0  0  0
  -83.6268   32.3973    0.4249 C   0  0  0  0  0  0  0  0  0  0  0  0
  -83.0479   31.5293    1.2725 N   0  0  0  0  0  0  0  0  0  0  0  0
  -83.6596   30.3294    1.4919 C   0  0  0  0  0  0  0  0  0  0  0  0
  -83.3061   29.2639    2.2548 N   0  0  0  0  0  0  0  0  0  0  0  0
  -84.2459   28.2864    2.1081 C   0  0  0  0  0  0  0  0  0  0  0  0
  -85.1780   28.7941    1.2363 C   0  0  0  0  0  0  0  0  0  0  0  0
  -84.8356   30.0645    0.8394 C   0  0  0  0  0  0  0  0  0  0  0  0
  -82.4437   29.2310    2.8357 H   0  0  0  0  0  0  0  0  0  0  0  0
  -92.5980   26.7734   -2.8881 C   0  0  0  0  0  0  0  0  0  0  0  0
  -93.8257   26.7126   -2.6257 O   0  0  0  0  0  0  0  0  0  0  0  0
  -91.8671   25.5648   -3.1727 N   0  0  0  0  0  0  0  0  0  0  0  0
  -90.8832   25.5518   -3.4253 H   0  0  0  0  0  0  0  0  0  0  0  0
  -92.6271   24.3730   -3.0875 C   0  0  0  0  0  0  0  0  0  0  0  0
  -93.5268   24.0567   -4.0799 C   0  0  0  0  0  0  0  0  0  0  0  0
  -94.1709   22.8353   -3.9995 C   0  0  0  0  0  0  0  0  0  0  0  0
  -93.9164   21.9675   -2.9579 C   0  0  0  0  0  0  0  0  0  0  0  0
  -93.0193   22.3214   -1.9890 C   0  0  0  0  0  0  0  0  0  0  0  0
  -92.3632   23.5191   -2.0349 C   0  0  0  0  0  0  0  0  0  0  0  0
  -94.5938   20.6625   -2.9226 C   0  0  0  0  0  0  0  0  0  0  0  0
  -93.8185   19.6712   -3.5178 F   0  0  0  0  0  0  0  0  0  0  0  0
  -94.8612   20.2753   -1.6202 F   0  0  0  0  0  0  0  0  0  0  0  0
  -95.7713   20.7581   -3.6538 F   0  0  0  0  0  0  0  0  0  0  0  0
  7  8  1  0  0  0
  8  9  1  0  0  0
  9 10  1  0  0  0
 10 11  1  0  0  0
 11 12  1  0  0  0
 12 13  1  0  0  0
 11  1  1  0  0  0
  1  2  2  0  0  0
  2  3  1  0  0  0
  3  4  2  0  0  0
  4  5  1  0  0  0
  5  6  2  0  0  0
  5 30  1  0  0  0
 30 31  2  0  0  0
 30 32  1  0  0  0
 32 34  1  0  0  0
 34 35  2  0  0  0
 35 36  1  0  0  0
 36 37  2  0  0  0
 37 38  1  0  0  0
 38 39  2  0  0  0
 37 40  1  0  0  0
 40 41  1  0  0  0
 40 42  1  0  0  0
 40 43  1  0  0  0
  3 14  1  0  0  0
 14 15  1  0  0  0
 15 16  1  0  0  0
 16 17  1  0  0  0
 17 18  1  0  0  0
 18 19  1  0  0  0
 17 20  1  0  0  0
 20 21  2  0  0  0
 21 22  1  0  0  0
 22 23  2  0  0  0
 23 24  1  0  0  0
 24 25  1  0  0  0
 25 26  1  0  0  0
 26 27  2  0  0  0
 27 28  1  0  0  0
 13  8  1  0  0  0
  6  1  1  0  0  0
 39 34  1  0  0  0
 19 14  1  0  0  0
 28 20  1  0  0  0
 28 24  2  0  0  0
 32 33  1  0  0  0
 25 29  1  0  0  0
M  END
> <minimizedAffinity>
-6.87323

> <CNNscore>
0.0528526083

> <CNNaffinity>
6.2543506622

> <CNN_VS>
0.3305587471

> <CNNaffinity_variance>
0.1702894717

$$$$
[H]c1nc(N2C([H])([H])C([H])([H])N(c3nc(C(=O)N([H])c4c([H])c([H])c(C(F)(F)F)c([H])c4[H])nc(N4C([H])([H])C([H])([H])N(C([H])([H])[H])C([H])([H])C4([H])[H])c3[H])C([H])([H])C2([H])[H])c2c([H])c([H])n([H])c2n1


 43 48  0  0  0  0  0  0  0  0999 V2000
  -89.0736   32.9224   -2.8617 C   0  0  0  0  0  0  0  0  0  0  0  0
  -90.0131   32.1969   -3.5225 C   0  0  0  0  0  0  0  0  0  0  0  0
  -90.0558   30.8056   -3.3552 C   0  0  0  0  0  0  0  0  0  0  0  0
  -89.1552   30.2349   -2.5383 N   0  0  0  0  0  0  0  0  0  0  0  0
  -88.2403   30.9381   -1.8875 C   0  0  0  0  0  0  0  0  0  0  0  0
  -88.2183   32.3001   -2.0659 N   0  0  0  0  0  0  0  0  0  0  0  0
  -88.1937   37.8566   -5.1337 C   0  0  0  0  0  0  0  0  0  0  0  0
  -88.4579   36.4750   -4.7231 N   0  0  0  0  0  0  0  0  0  0  0  0
  -87.3994   36.1494   -3.7977 C   0  0  0  0  0  0  0  0  0  0  0  0
  -87.6186   34.9200   -3.0067 C   0  0  0  0  0  0  0  0  0  0  0  0
  -88.9602   34.3589   -3.0789 N   0  0  0  0  0  0  0  0  0  0  0  0
  -90.0719   35.1801   -3.3395 C   0  0  0  0  0  0  0  0  0  0  0  0
  -89.7569   36.4454   -4.1079 C   0  0  0  0  0  0  0  0  0  0  0  0
  -91.0743   30.1224   -4.0345 N   0  0  0  0  0  0  0  0  0  0  0  0
  -91.9104   30.7911   -5.0139 C   0  0  0  0  0  0  0  0  0  0  0  0
  -92.3783   29.7602   -6.0184 C   0  0  0  0  0  0  0  0  0  0  0  0
  -93.0407   28.6530   -5.3241 N   0  0  0  0  0  0  0  0  0  0  0  0
  -92.7080   28.3283   -3.9524 C   0  0  0  0  0  0  0  0  0  0  0  0
  -91.2491   28.6927   -3.7515 C   0  0  0  0  0  0  0  0  0  0  0  0
  -93.9881   27.9001   -6.0726 C   0  0  0  0  0  0  0  0  0  0  0  0
  -94.7805   28.4581   -7.0072 N   0  0  0  0  0  0  0  0  0  0  0  0
  -95.6445   27.6960   -7.6936 C   0  0  0  0  0  0  0  0  0  0  0  0
  -95.7796   26.3729   -7.4989 N   0  0  0  0  0  0  0  0  0  0  0  0
  -94.9965   25.7715   -6.5571 C   0  0  0  0  0  0  0  0  0  0  0  0
  -94.9302   24.4855   -6.1279 N   0  0  0  0  0  0  0  0  0  0  0  0
  -93.9986   24.4004   -5.1352 C   0  0  0  0  0  0  0  0  0  0  0  0
  -93.5032   25.6719   -4.9797 C   0  0  0  0  0  0  0  0  0  0  0  0
  -94.1080   26.5429   -5.8540 C   0  0  0  0  0  0  0  0  0  0  0  0
  -95.5192   23.7183   -6.5108 H   0  0  0  0  0  0  0  0  0  0  0  0
  -87.1950   30.3888   -1.0479 C   0  0  0  0  0  0  0  0  0  0  0  0
  -86.8388   29.2076   -1.2885 O   0  0  0  0  0  0  0  0  0  0  0  0
  -86.5748   31.1170    0.0295 N   0  0  0  0  0  0  0  0  0  0  0  0
  -86.7941   32.0839    0.2511 H   0  0  0  0  0  0  0  0  0  0  0  0
  -85.6115   30.3869    0.7674 C   0  0  0  0  0  0  0  0  0  0  0  0
  -86.0135   29.5252    1.7625 C   0  0  0  0  0  0  0  0  0  0  0  0
  -85.0417   28.7629    2.3853 C   0  0  0  0  0  0  0  0  0  0  0  0
  -83.7163   28.8669    2.0175 C   0  0  0  0  0  0  0  0  0  0  0  0
  -83.3573   29.7388    1.0278 C   0  0  0  0  0  0  0  0  0  0  0  0
  -84.2890   30.5078    0.3892 C   0  0  0  0  0  0  0  0  0  0  0  0
  -82.7144   28.0161    2.6775 C   0  0  0  0  0  0  0  0  0  0  0  0
  -83.0605   27.7564    4.0007 F   0  0  0  0  0  0  0  0  0  0  0  0
  -82.5811   26.8037    2.0220 F   0  0  0  0  0  0  0  0  0  0  0  0
  -81.5029   28.6960    2.6953 F   0  0  0  0  0  0  0  0  0  0  0  0
  7  8  1  0  0  0
  8  9  1  0  0  0
  9 10  1  0  0  0
 10 11  1  0  0  0
 11 12  1  0  0  0
 12 13  1  0  0  0
 11  1  1  0  0  0
  1  2  2  0  0  0
  2  3  1  0  0  0
  3  4  2  0  0  0
  4  5  1  0  0  0
  5  6  2  0  0  0
  5 30  1  0  0  0
 30 31  2  0  0  0
 30 32  1  0  0  0
 32 34  1  0  0  0
 34 35  2  0  0  0
 35 36  1  0  0  0
 36 37  2  0  0  0
 37 38  1  0  0  0
 38 39  2  0  0  0
 37 40  1  0  0  0
 40 41  1  0  0  0
 40 42  1  0  0  0
 40 43  1  0  0  0
  3 14  1  0  0  0
 14 15  1  0  0  0
 15 16  1  0  0  0
 16 17  1  0  0  0
 17 18  1  0  0  0
 18 19  1  0  0  0
 17 20  1  0  0  0
 20 21  2  0  0  0
 21 22  1  0  0  0
 22 23  2  0  0  0
 23 24  1  0  0  0
 24 25  1  0  0  0
 25 26  1  0  0  0
 26 27  2  0  0  0
 27 28  1  0  0  0
 13  8  1  0  0  0
  6  1  1  0  0  0
 39 34  1  0  0  0
 19 14  1  0  0  0
 28 20  1  0  0  0
 28 24  2  0  0  0
 32 33  1  0  0  0
 25 29  1  0  0  0
M  END
> <minimizedAffinity>
-6.09672

> <CNNscore>
0.0485538021

> <CNNaffinity>
6.1441078186

> <CNN_VS>
0.2983197868

> <CNNaffinity_variance>
0.2453523874

$$$$
[H]c1nc(N2C([H])([H])C([H])([H])N(c3nc(C(=O)N([H])c4c([H])c([H])c(C(F)(F)F)c([H])c4[H])nc(N4C([H])([H])C([H])([H])N(C([H])([H])[H])C([H])([H])C4([H])[H])c3[H])C([H])([H])C2([H])[H])c2c([H])c([H])n([H])c2n1


 43 48  0  0  0  0  0  0  0  0999 V2000
  -91.4841   32.3476   -5.0145 C   0  0  0  0  0  0  0  0  0  0  0  0
  -92.1296   31.1843   -5.2901 C   0  0  0  0  0  0  0  0  0  0  0  0
  -91.6719   29.9881   -4.7200 C   0  0  0  0  0  0  0  0  0  0  0  0
  -90.5990   30.0371   -3.9133 N   0  0  0  0  0  0  0  0  0  0  0  0
  -89.9690   31.1694   -3.6371 C   0  0  0  0  0  0  0  0  0  0  0  0
  -90.4361   32.3292   -4.2061 N   0  0  0  0  0  0  0  0  0  0  0  0
  -91.4962   37.4073   -7.1782 C   0  0  0  0  0  0  0  0  0  0  0  0
  -91.2891   36.0589   -6.6430 N   0  0  0  0  0  0  0  0  0  0  0  0
  -91.9610   36.0545   -5.3659 C   0  0  0  0  0  0  0  0  0  0  0  0
  -92.1615   34.7161   -4.7712 C   0  0  0  0  0  0  0  0  0  0  0  0
  -91.8935   33.5907   -5.6552 N   0  0  0  0  0  0  0  0  0  0  0  0
  -92.0351   33.7190   -7.0486 C   0  0  0  0  0  0  0  0  0  0  0  0
  -91.8677   35.1285   -7.5739 C   0  0  0  0  0  0  0  0  0  0  0  0
  -92.4068   28.8308   -5.0138 N   0  0  0  0  0  0  0  0  0  0  0  0
  -93.2361   28.7430   -6.2013 C   0  0  0  0  0  0  0  0  0  0  0  0
  -93.3172   27.2893   -6.6146 C   0  0  0  0  0  0  0  0  0  0  0  0
  -93.7942   26.4780   -5.4917 N   0  0  0  0  0  0  0  0  0  0  0  0
  -93.5813   26.9017   -4.1230 C   0  0  0  0  0  0  0  0  0  0  0  0
  -92.2850   27.6895   -4.0990 C   0  0  0  0  0  0  0  0  0  0  0  0
  -94.4354   25.2492   -5.8134 C   0  0  0  0  0  0  0  0  0  0  0  0
  -95.2218   25.1049   -6.8966 N   0  0  0  0  0  0  0  0  0  0  0  0
  -95.7879   23.9179   -7.1592 C   0  0  0  0  0  0  0  0  0  0  0  0
  -95.6216   22.8320   -6.3845 N   0  0  0  0  0  0  0  0  0  0  0  0
  -94.8344   22.9397   -5.2751 C   0  0  0  0  0  0  0  0  0  0  0  0
  -94.5111   22.0428   -4.3091 N   0  0  0  0  0  0  0  0  0  0  0  0
  -93.7118   22.6555   -3.3893 C   0  0  0  0  0  0  0  0  0  0  0  0
  -93.5604   23.9476   -3.8298 C   0  0  0  0  0  0  0  0  0  0  0  0
  -94.2490   24.1487   -5.0020 C   0  0  0  0  0  0  0  0  0  0  0  0
  -94.8473   21.0584   -4.3000 H   0  0  0  0  0  0  0  0  0  0  0  0
  -88.7677   31.2916   -2.8363 C   0  0  0  0  0  0  0  0  0  0  0  0
  -87.6720   31.1444   -3.4346 O   0  0  0  0  0  0  0  0  0  0  0  0
  -88.7790   31.5542   -1.4198 N   0  0  0  0  0  0  0  0  0  0  0  0
  -89.6287   31.7165   -0.8871 H   0  0  0  0  0  0  0  0  0  0  0  0
  -87.5024   31.5837   -0.8075 C   0  0  0  0  0  0  0  0  0  0  0  0
  -86.7750   32.7519   -0.7861 C   0  0  0  0  0  0  0  0  0  0  0  0
  -85.5795   32.7533   -0.0904 C   0  0  0  0  0  0  0  0  0  0  0  0
  -85.1362   31.6195    0.5583 C   0  0  0  0  0  0  0  0  0  0  0  0
  -85.8858   30.4774    0.5086 C   0  0  0  0  0  0  0  0  0  0  0  0
  -87.0723   30.4379   -0.1681 C   0  0  0  0  0  0  0  0  0  0  0  0
  -83.8773   31.6667    1.3172 C   0  0  0  0  0  0  0  0  0  0  0  0
  -83.2163   30.4420    1.2818 F   0  0  0  0  0  0  0  0  0  0  0  0
  -83.0242   32.6308    0.8069 F   0  0  0  0  0  0  0  0  0  0  0  0
  -84.1752   31.9349    2.6475 F   0  0  0  0  0  0  0  0  0  0  0  0
  7  8  1  0  0  0
  8  9  1  0  0  0
  9 10  1  0  0  0
 10 11  1  0  0  0
 11 12  1  0  0  0
 12 13  1  0  0  0
 11  1  1  0  0  0
  1  2  2  0  0  0
  2  3  1  0  0  0
  3  4  2  0  0  0
  4  5  1  0  0  0
  5  6  2  0  0  0
  5 30  1  0  0  0
 30 31  2  0  0  0
 30 32  1  0  0  0
 32 34  1  0  0  0
 34 35  2  0  0  0
 35 36  1  0  0  0
 36 37  2  0  0  0
 37 38  1  0  0  0
 38 39  2  0  0  0
 37 40  1  0  0  0
 40 41  1  0  0  0
 40 42  1  0  0  0
 40 43  1  0  0  0
  3 14  1  0  0  0
 14 15  1  0  0  0
 15 16  1  0  0  0
 16 17  1  0  0  0
 17 18  1  0  0  0
 18 19  1  0  0  0
 17 20  1  0  0  0
 20 21  2  0  0  0
 21 22  1  0  0  0
 22 23  2  0  0  0
 23 24  1  0  0  0
 24 25  1  0  0  0
 25 26  1  0  0  0
 26 27  2  0  0  0
 27 28  1  0  0  0
 13  8  1  0  0  0
  6  1  1  0  0  0
 39 34  1  0  0  0
 19 14  1  0  0  0
 28 20  1  0  0  0
 28 24  2  0  0  0
 32 33  1  0  0  0
 25 29  1  0  0  0
M  END
> <minimizedAffinity>
-8.45138

> <CNNscore>
0.0450046957

> <CNNaffinity>
5.8192949295

> <CNN_VS>
0.2618955970

> <CNNaffinity_variance>
0.2422709018

$$$$
[H]c1nc(N2C([H])([H])C([H])([H])N(c3nc(C(=O)N([H])c4c([H])c([H])c(C(F)(F)F)c([H])c4[H])nc(N4C([H])([H])C([H])([H])N(C([H])([H])[H])C([H])([H])C4([H])[H])c3[H])C([H])([H])C2([H])[H])c2c([H])c([H])n([H])c2n1


 43 48  0  0  0  0  0  0  0  0999 V2000
  -88.0264   34.5377   -3.1693 C   0  0  0  0  0  0  0  0  0  0  0  0
  -89.0675   34.0767   -3.9105 C   0  0  0  0  0  0  0  0  0  0  0  0
  -89.4705   32.7402   -3.7800 C   0  0  0  0  0  0  0  0  0  0  0  0
  -88.8039   31.9558   -2.9172 N   0  0  0  0  0  0  0  0  0  0  0  0
  -87.7914   32.4015   -2.1882 C   0  0  0  0  0  0  0  0  0  0  0  0
  -87.4150   33.7148   -2.3319 N   0  0  0  0  0  0  0  0  0  0  0  0
  -87.3685   39.7177   -4.9061 C   0  0  0  0  0  0  0  0  0  0  0  0
  -87.7405   38.3574   -4.5079 N   0  0  0  0  0  0  0  0  0  0  0  0
  -86.6907   37.5140   -5.0267 C   0  0  0  0  0  0  0  0  0  0  0  0
  -86.6749   36.1366   -4.4904 C   0  0  0  0  0  0  0  0  0  0  0  0
  -87.5403   35.9003   -3.3435 N   0  0  0  0  0  0  0  0  0  0  0  0
  -87.8702   36.9454   -2.4620 C   0  0  0  0  0  0  0  0  0  0  0  0
  -87.8121   38.3292   -3.0723 C   0  0  0  0  0  0  0  0  0  0  0  0
  -90.5760   32.3402   -4.5440 N   0  0  0  0  0  0  0  0  0  0  0  0
  -91.1901   33.2321   -5.5098 C   0  0  0  0  0  0  0  0  0  0  0  0
  -91.8181   32.3892   -6.5988 C   0  0  0  0  0  0  0  0  0  0  0  0
  -92.7444   31.4205   -6.0071 N   0  0  0  0  0  0  0  0  0  0  0  0
  -92.5661   30.9535   -4.6477 C   0  0  0  0  0  0  0  0  0  0  0  0
  -91.0759   30.9719   -4.3640 C   0  0  0  0  0  0  0  0  0  0  0  0
  -93.7922   30.9407   -6.8418 C   0  0  0  0  0  0  0  0  0  0  0  0
  -94.5081   31.7516   -7.6432 N   0  0  0  0  0  0  0  0  0  0  0  0
  -95.4740   31.2411   -8.4210 C   0  0  0  0  0  0  0  0  0  0  0  0
  -95.7877   29.9343   -8.4484 N   0  0  0  0  0  0  0  0  0  0  0  0
  -95.0867   29.0809   -7.6469 C   0  0  0  0  0  0  0  0  0  0  0  0
  -95.1939   27.7433   -7.4433 N   0  0  0  0  0  0  0  0  0  0  0  0
  -94.2747   27.3653   -6.5091 C   0  0  0  0  0  0  0  0  0  0  0  0
  -93.6084   28.5135   -6.1567 C   0  0  0  0  0  0  0  0  0  0  0  0
  -94.0952   29.5944   -6.8519 C   0  0  0  0  0  0  0  0  0  0  0  0
  -95.8856   27.1389   -7.9316 H   0  0  0  0  0  0  0  0  0  0  0  0
  -86.9814   31.6011   -1.2923 C   0  0  0  0  0  0  0  0  0  0  0  0
  -86.9840   30.3590   -1.4852 O   0  0  0  0  0  0  0  0  0  0  0  0
  -86.2061   32.1550   -0.2117 N   0  0  0  0  0  0  0  0  0  0  0  0
  -86.1358   33.1514   -0.0263 H   0  0  0  0  0  0  0  0  0  0  0  0
  -85.5249   31.2023    0.5844 C   0  0  0  0  0  0  0  0  0  0  0  0
  -86.2367   30.3335    1.3799 C   0  0  0  0  0  0  0  0  0  0  0  0
  -85.5303   29.3587    2.0611 C   0  0  0  0  0  0  0  0  0  0  0  0
  -84.1591   29.2650    1.9434 C   0  0  0  0  0  0  0  0  0  0  0  0
  -83.4884   30.1508    1.1469 C   0  0  0  0  0  0  0  0  0  0  0  0
  -84.1520   31.1267    0.4581 C   0  0  0  0  0  0  0  0  0  0  0  0
  -83.4442   28.1947    2.6550 C   0  0  0  0  0  0  0  0  0  0  0  0
  -83.7237   28.2162    4.0186 F   0  0  0  0  0  0  0  0  0  0  0  0
  -83.7958   26.9488    2.1635 F   0  0  0  0  0  0  0  0  0  0  0  0
  -82.0786   28.4071    2.5118 F   0  0  0  0  0  0  0  0  0  0  0  0
  7  8  1  0  0  0
  8  9  1  0  0  0
  9 10  1  0  0  0
 10 11  1  0  0  0
 11 12  1  0  0  0
 12 13  1  0  0  0
 11  1  1  0  0  0
  1  2  2  0  0  0
  2  3  1  0  0  0
  3  4  2  0  0  0
  4  5  1  0  0  0
  5  6  2  0  0  0
  5 30  1  0  0  0
 30 31  2  0  0  0
 30 32  1  0  0  0
 32 34  1  0  0  0
 34 35  2  0  0  0
 35 36  1  0  0  0
 36 37  2  0  0  0
 37 38  1  0  0  0
 38 39  2  0  0  0
 37 40  1  0  0  0
 40 41  1  0  0  0
 40 42  1  0  0  0
 40 43  1  0  0  0
  3 14  1  0  0  0
 14 15  1  0  0  0
 15 16  1  0  0  0
 16 17  1  0  0  0
 17 18  1  0  0  0
 18 19  1  0  0  0
 17 20  1  0  0  0
 20 21  2  0  0  0
 21 22  1  0  0  0
 22 23  2  0  0  0
 23 24  1  0  0  0
 24 25  1  0  0  0
 25 26  1  0  0  0
 26 27  2  0  0  0
 27 28  1  0  0  0
 13  8  1  0  0  0
  6  1  1  0  0  0
 39 34  1  0  0  0
 19 14  1  0  0  0
 28 20  1  0  0  0
 28 24  2  0  0  0
 32 33  1  0  0  0
 25 29  1  0  0  0
M  END
> <minimizedAffinity>
-6.58963

> <CNNscore>
0.0350313410

> <CNNaffinity>
6.1427831650

> <CNN_VS>
0.2151899338

> <CNNaffinity_variance>
0.4993968606

$$$$
[H]c1nc(N2C([H])([H])C([H])([H])N(c3nc(C(=O)N([H])c4c([H])c([H])c(C(F)(F)F)c([H])c4[H])nc(N4C([H])([H])C([H])([H])N(C([H])([H])[H])C([H])([H])C4([H])[H])c3[H])C([H])([H])C2([H])[H])c2c([H])c([H])n([H])c2n1


 43 48  0  0  0  0  0  0  0  0999 V2000
  -87.2600   30.7550   -0.4437 C   0  0  0  0  0  0  0  0  0  0  0  0
  -87.3055   31.9110   -1.1559 C   0  0  0  0  0  0  0  0  0  0  0  0
  -88.2777   32.0705   -2.1533 C   0  0  0  0  0  0  0  0  0  0  0  0
  -89.1380   31.0621   -2.3706 N   0  0  0  0  0  0  0  0  0  0  0  0
  -89.1015   29.9348   -1.6755 C   0  0  0  0  0  0  0  0  0  0  0  0
  -88.1410   29.8015   -0.7024 N   0  0  0  0  0  0  0  0  0  0  0  0
  -82.6433   29.1270    2.0698 C   0  0  0  0  0  0  0  0  0  0  0  0
  -83.7656   29.5407    1.2233 N   0  0  0  0  0  0  0  0  0  0  0  0
  -84.8942   28.7754    1.6956 C   0  0  0  0  0  0  0  0  0  0  0  0
  -86.2105   29.2401    1.2091 C   0  0  0  0  0  0  0  0  0  0  0  0
  -86.2116   30.5354    0.5442 N   0  0  0  0  0  0  0  0  0  0  0  0
  -85.2462   31.5084    0.8597 C   0  0  0  0  0  0  0  0  0  0  0  0
  -83.9453   30.9559    1.4013 C   0  0  0  0  0  0  0  0  0  0  0  0
  -88.2944   33.3021   -2.8230 N   0  0  0  0  0  0  0  0  0  0  0  0
  -87.1106   34.1380   -2.8978 C   0  0  0  0  0  0  0  0  0  0  0  0
  -87.1923   34.9604   -4.1658 C   0  0  0  0  0  0  0  0  0  0  0  0
  -88.4530   35.7063   -4.1955 N   0  0  0  0  0  0  0  0  0  0  0  0
  -89.6210   35.2237   -3.4878 C   0  0  0  0  0  0  0  0  0  0  0  0
  -89.5415   33.7087   -3.4816 C   0  0  0  0  0  0  0  0  0  0  0  0
  -88.4784   36.8944   -4.9779 C   0  0  0  0  0  0  0  0  0  0  0  0
  -87.9430   38.0537   -4.5514 N   0  0  0  0  0  0  0  0  0  0  0  0
  -87.9818   39.1386   -5.3388 C   0  0  0  0  0  0  0  0  0  0  0  0
  -88.5432   39.1458   -6.5601 N   0  0  0  0  0  0  0  0  0  0  0  0
  -89.1001   37.9905   -7.0261 C   0  0  0  0  0  0  0  0  0  0  0  0
  -89.7500   37.7062   -8.1832 N   0  0  0  0  0  0  0  0  0  0  0  0
  -90.1472   36.4016   -8.1558 C   0  0  0  0  0  0  0  0  0  0  0  0
  -89.7160   35.9066   -6.9494 C   0  0  0  0  0  0  0  0  0  0  0  0
  -89.0609   36.8762   -6.2288 C   0  0  0  0  0  0  0  0  0  0  0  0
  -89.9099   38.4009   -8.9409 H   0  0  0  0  0  0  0  0  0  0  0  0
  -89.9466   28.7793   -1.8987 C   0  0  0  0  0  0  0  0  0  0  0  0
  -91.0667   28.7794   -1.3282 O   0  0  0  0  0  0  0  0  0  0  0  0
  -89.5599   27.6563   -2.7142 N   0  0  0  0  0  0  0  0  0  0  0  0
  -88.6845   27.6124   -3.2279 H   0  0  0  0  0  0  0  0  0  0  0  0
  -90.5032   26.6013   -2.7642 C   0  0  0  0  0  0  0  0  0  0  0  0
  -91.5899   26.6875   -3.6044 C   0  0  0  0  0  0  0  0  0  0  0  0
  -92.4269   25.5895   -3.6890 C   0  0  0  0  0  0  0  0  0  0  0  0
  -92.1763   24.4495   -2.9539 C   0  0  0  0  0  0  0  0  0  0  0  0
  -91.0889   24.4059   -2.1266 C   0  0  0  0  0  0  0  0  0  0  0  0
  -90.2391   25.4704   -2.0173 C   0  0  0  0  0  0  0  0  0  0  0  0
  -93.0680   23.2885   -3.0945 C   0  0  0  0  0  0  0  0  0  0  0  0
  -93.5333   22.8522   -1.8570 F   0  0  0  0  0  0  0  0  0  0  0  0
  -94.1647   23.5953   -3.8824 F   0  0  0  0  0  0  0  0  0  0  0  0
  -92.3440   22.2426   -3.6535 F   0  0  0  0  0  0  0  0  0  0  0  0
  7  8  1  0  0  0
  8  9  1  0  0  0
  9 10  1  0  0  0
 10 11  1  0  0  0
 11 12  1  0  0  0
 12 13  1  0  0  0
 11  1  1  0  0  0
  1  2  2  0  0  0
  2  3  1  0  0  0
  3  4  2  0  0  0
  4  5  1  0  0  0
  5  6  2  0  0  0
  5 30  1  0  0  0
 30 31  2  0  0  0
 30 32  1  0  0  0
 32 34  1  0  0  0
 34 35  2  0  0  0
 35 36  1  0  0  0
 36 37  2  0  0  0
 37 38  1  0  0  0
 38 39  2  0  0  0
 37 40  1  0  0  0
 40 41  1  0  0  0
 40 42  1  0  0  0
 40 43  1  0  0  0
  3 14  1  0  0  0
 14 15  1  0  0  0
 15 16  1  0  0  0
 16 17  1  0  0  0
 17 18  1  0  0  0
 18 19  1  0  0  0
 17 20  1  0  0  0
 20 21  2  0  0  0
 21 22  1  0  0  0
 22 23  2  0  0  0
 23 24  1  0  0  0
 24 25  1  0  0  0
 25 26  1  0  0  0
 26 27  2  0  0  0
 27 28  1  0  0  0
 13  8  1  0  0  0
  6  1  1  0  0  0
 39 34  1  0  0  0
 19 14  1  0  0  0
 28 20  1  0  0  0
 28 24  2  0  0  0
 32 33  1  0  0  0
 25 29  1  0  0  0
M  END
> <minimizedAffinity>
-8.57640

> <CNNscore>
0.0312822685

> <CNNaffinity>
6.1449732780

> <CNN_VS>
0.1922287047

> <CNNaffinity_variance>
0.3557609618

$$$$
[H]c1nc(N2C([H])([H])C([H])([H])N(c3nc(C(=O)N([H])c4c([H])c([H])c(C(F)(F)F)c([H])c4[H])nc(N4C([H])([H])C([H])([H])N(C([H])([H])[H])C([H])([H])C4([H])[H])c3[H])C([H])([H])C2([H])[H])c2c([H])c([H])n([H])c2n1


 43 48  0  0  0  0  0  0  0  0999 V2000
  -87.1615   30.5687   -0.6447 C   0  0  0  0  0  0  0  0  0  0  0  0
  -87.1875   31.6496   -1.4674 C   0  0  0  0  0  0  0  0  0  0  0  0
  -88.1419   31.7152   -2.4923 C   0  0  0  0  0  0  0  0  0  0  0  0
  -89.0051   30.6947   -2.6244 N   0  0  0  0  0  0  0  0  0  0  0  0
  -88.9876   29.6408   -1.8217 C   0  0  0  0  0  0  0  0  0  0  0  0
  -88.0443   29.5989   -0.8238 N   0  0  0  0  0  0  0  0  0  0  0  0
  -82.5752   29.2125    2.0772 C   0  0  0  0  0  0  0  0  0  0  0  0
  -83.6854   29.5423    1.1794 N   0  0  0  0  0  0  0  0  0  0  0  0
  -84.8120   28.7961    1.6856 C   0  0  0  0  0  0  0  0  0  0  0  0
  -86.1245   29.2007    1.1390 C   0  0  0  0  0  0  0  0  0  0  0  0
  -86.1311   30.4420    0.3779 N   0  0  0  0  0  0  0  0  0  0  0  0
  -85.1875   31.4520    0.6381 C   0  0  0  0  0  0  0  0  0  0  0  0
  -83.8903   30.9638    1.2460 C   0  0  0  0  0  0  0  0  0  0  0  0
  -88.1393   32.8754   -3.2795 N   0  0  0  0  0  0  0  0  0  0  0  0
  -87.8353   34.1749   -2.7099 C   0  0  0  0  0  0  0  0  0  0  0  0
  -87.2394   35.0406   -3.7991 C   0  0  0  0  0  0  0  0  0  0  0  0
  -88.1466   35.0897   -4.9485 N   0  0  0  0  0  0  0  0  0  0  0  0
  -89.0718   34.0074   -5.2142 C   0  0  0  0  0  0  0  0  0  0  0  0
  -88.4192   32.7328   -4.7133 C   0  0  0  0  0  0  0  0  0  0  0  0
  -88.0441   36.2251   -5.7999 C   0  0  0  0  0  0  0  0  0  0  0  0
  -87.1574   36.2945   -6.8106 N   0  0  0  0  0  0  0  0  0  0  0  0
  -87.1165   37.3840   -7.5914 C   0  0  0  0  0  0  0  0  0  0  0  0
  -87.9229   38.4459   -7.4215 N   0  0  0  0  0  0  0  0  0  0  0  0
  -88.8327   38.4148   -6.4050 C   0  0  0  0  0  0  0  0  0  0  0  0
  -89.7406   39.3299   -5.9800 N   0  0  0  0  0  0  0  0  0  0  0  0
  -90.3951   38.8286   -4.8933 C   0  0  0  0  0  0  0  0  0  0  0  0
  -89.8571   37.5836   -4.6765 C   0  0  0  0  0  0  0  0  0  0  0  0
  -88.8834   37.3030   -5.6049 C   0  0  0  0  0  0  0  0  0  0  0  0
  -89.8783   40.2578   -6.4295 H   0  0  0  0  0  0  0  0  0  0  0  0
  -89.8365   28.4732   -1.9452 C   0  0  0  0  0  0  0  0  0  0  0  0
  -90.9273   28.4987   -1.3211 O   0  0  0  0  0  0  0  0  0  0  0  0
  -89.4842   27.3118   -2.7216 N   0  0  0  0  0  0  0  0  0  0  0  0
  -88.6348   27.2447   -3.2748 H   0  0  0  0  0  0  0  0  0  0  0  0
  -90.4232   26.2530   -2.6724 C   0  0  0  0  0  0  0  0  0  0  0  0
  -91.5354   26.2798   -3.4827 C   0  0  0  0  0  0  0  0  0  0  0  0
  -92.3691   25.1761   -3.4685 C   0  0  0  0  0  0  0  0  0  0  0  0
  -92.0904   24.0883   -2.6674 C   0  0  0  0  0  0  0  0  0  0  0  0
  -90.9781   24.1030   -1.8729 C   0  0  0  0  0  0  0  0  0  0  0  0
  -90.1308   25.1750   -1.8606 C   0  0  0  0  0  0  0  0  0  0  0  0
  -92.9801   22.9178   -2.7032 C   0  0  0  0  0  0  0  0  0  0  0  0
  -92.8254   22.1269   -1.5680 F   0  0  0  0  0  0  0  0  0  0  0  0
  -94.3078   23.3036   -2.7807 F   0  0  0  0  0  0  0  0  0  0  0  0
  -92.6353   22.1362   -3.7989 F   0  0  0  0  0  0  0  0  0  0  0  0
  7  8  1  0  0  0
  8  9  1  0  0  0
  9 10  1  0  0  0
 10 11  1  0  0  0
 11 12  1  0  0  0
 12 13  1  0  0  0
 11  1  1  0  0  0
  1  2  2  0  0  0
  2  3  1  0  0  0
  3  4  2  0  0  0
  4  5  1  0  0  0
  5  6  2  0  0  0
  5 30  1  0  0  0
 30 31  2  0  0  0
 30 32  1  0  0  0
 32 34  1  0  0  0
 34 35  2  0  0  0
 35 36  1  0  0  0
 36 37  2  0  0  0
 37 38  1  0  0  0
 38 39  2  0  0  0
 37 40  1  0  0  0
 40 41  1  0  0  0
 40 42  1  0  0  0
 40 43  1  0  0  0
  3 14  1  0  0  0
 14 15  1  0  0  0
 15 16  1  0  0  0
 16 17  1  0  0  0
 17 18  1  0  0  0
 18 19  1  0  0  0
 17 20  1  0  0  0
 20 21  2  0  0  0
 21 22  1  0  0  0
 22 23  2  0  0  0
 23 24  1  0  0  0
 24 25  1  0  0  0
 25 26  1  0  0  0
 26 27  2  0  0  0
 27 28  1  0  0  0
 13  8  1  0  0  0
  6  1  1  0  0  0
 39 34  1  0  0  0
 19 14  1  0  0  0
 28 20  1  0  0  0
 28 24  2  0  0  0
 32 33  1  0  0  0
 25 29  1  0  0  0
M  END
> <minimizedAffinity>
-8.87382

> <CNNscore>
0.0278586447

> <CNNaffinity>
6.0299415588

> <CNN_VS>
0.1679860055

> <CNNaffinity_variance>
0.4817772508

$$$$
[H]c1nc(N2C([H])([H])C([H])([H])N(c3nc(C(=O)N([H])c4c([H])c([H])c(C(F)(F)F)c([H])c4[H])nc(N4C([H])([H])C([H])([H])N(C([H])([H])[H])C([H])([H])C4([H])[H])c3[H])C([H])([H])C2([H])[H])c2c([H])c([H])n([H])c2n1


 43 48  0  0  0  0  0  0  0  0999 V2000
  -92.4309   26.2128   -1.3665 C   0  0  0  0  0  0  0  0  0  0  0  0
  -91.9416   25.3917   -0.4010 C   0  0  0  0  0  0  0  0  0  0  0  0
  -90.8504   25.8094    0.3737 C   0  0  0  0  0  0  0  0  0  0  0  0
  -90.3227   27.0202    0.1294 N   0  0  0  0  0  0  0  0  0  0  0  0
  -90.7992   27.8270   -0.8072 C   0  0  0  0  0  0  0  0  0  0  0  0
  -91.8697   27.3970   -1.5531 N   0  0  0  0  0  0  0  0  0  0  0  0
  -95.7880   25.5234   -5.6719 C   0  0  0  0  0  0  0  0  0  0  0  0
  -94.7499   25.7608   -4.6653 N   0  0  0  0  0  0  0  0  0  0  0  0
  -95.3854   26.5713   -3.6545 C   0  0  0  0  0  0  0  0  0  0  0  0
  -94.6380   26.6834   -2.3840 C   0  0  0  0  0  0  0  0  0  0  0  0
  -93.5139   25.7701   -2.2352 N   0  0  0  0  0  0  0  0  0  0  0  0
  -93.4996   24.5303   -2.8992 C   0  0  0  0  0  0  0  0  0  0  0  0
  -94.3310   24.4805   -4.1630 C   0  0  0  0  0  0  0  0  0  0  0  0
  -90.4206   24.9311    1.3785 N   0  0  0  0  0  0  0  0  0  0  0  0
  -91.2616   23.8433    1.8422 C   0  0  0  0  0  0  0  0  0  0  0  0
  -90.3638   22.7315    2.3408 C   0  0  0  0  0  0  0  0  0  0  0  0
  -89.4449   23.2509    3.3568 N   0  0  0  0  0  0  0  0  0  0  0  0
  -89.0576   24.6466    3.3674 C   0  0  0  0  0  0  0  0  0  0  0  0
  -89.0725   25.1220    1.9268 C   0  0  0  0  0  0  0  0  0  0  0  0
  -88.9305   22.3148    4.2968 C   0  0  0  0  0  0  0  0  0  0  0  0
  -89.0270   20.9837    4.1198 N   0  0  0  0  0  0  0  0  0  0  0  0
  -88.5092   20.1480    5.0319 C   0  0  0  0  0  0  0  0  0  0  0  0
  -87.8874   20.5653    6.1482 N   0  0  0  0  0  0  0  0  0  0  0  0
  -87.7731   21.9077    6.3650 C   0  0  0  0  0  0  0  0  0  0  0  0
  -87.2343   22.6117    7.3927 N   0  0  0  0  0  0  0  0  0  0  0  0
  -87.4013   23.9433    7.1492 C   0  0  0  0  0  0  0  0  0  0  0  0
  -88.0546   24.0222    5.9436 C   0  0  0  0  0  0  0  0  0  0  0  0
  -88.2963   22.7684    5.4354 C   0  0  0  0  0  0  0  0  0  0  0  0
  -86.7848   22.1711    8.2210 H   0  0  0  0  0  0  0  0  0  0  0  0
  -90.2415   29.1125   -1.1758 C   0  0  0  0  0  0  0  0  0  0  0  0
  -90.6526   29.6203   -2.2496 O   0  0  0  0  0  0  0  0  0  0  0  0
  -89.2527   29.8056   -0.3899 N   0  0  0  0  0  0  0  0  0  0  0  0
  -88.9068   29.4644    0.5024 H   0  0  0  0  0  0  0  0  0  0  0  0
  -88.7934   31.0238   -0.9469 C   0  0  0  0  0  0  0  0  0  0  0  0
  -87.4628   31.1790   -1.2627 C   0  0  0  0  0  0  0  0  0  0  0  0
  -87.0835   32.3494   -1.8949 C   0  0  0  0  0  0  0  0  0  0  0  0
  -88.0115   33.3245   -2.1963 C   0  0  0  0  0  0  0  0  0  0  0  0
  -89.3230   33.1341   -1.8610 C   0  0  0  0  0  0  0  0  0  0  0  0
  -89.7355   31.9909   -1.2365 C   0  0  0  0  0  0  0  0  0  0  0  0
  -87.5785   34.5414   -2.8996 C   0  0  0  0  0  0  0  0  0  0  0  0
  -86.4733   35.1197   -2.2814 F   0  0  0  0  0  0  0  0  0  0  0  0
  -87.2399   34.2635   -4.2133 F   0  0  0  0  0  0  0  0  0  0  0  0
  -88.6108   35.4699   -2.8487 F   0  0  0  0  0  0  0  0  0  0  0  0
  7  8  1  0  0  0
  8  9  1  0  0  0
  9 10  1  0  0  0
 10 11  1  0  0  0
 11 12  1  0  0  0
 12 13  1  0  0  0
 11  1  1  0  0  0
  1  2  2  0  0  0
  2  3  1  0  0  0
  3  4  2  0  0  0
  4  5  1  0  0  0
  5  6  2  0  0  0
  5 30  1  0  0  0
 30 31  2  0  0  0
 30 32  1  0  0  0
 32 34  1  0  0  0
 34 35  2  0  0  0
 35 36  1  0  0  0
 36 37  2  0  0  0
 37 38  1  0  0  0
 38 39  2  0  0  0
 37 40  1  0  0  0
 40 41  1  0  0  0
 40 42  1  0  0  0
 40 43  1  0  0  0
  3 14  1  0  0  0
 14 15  1  0  0  0
 15 16  1  0  0  0
 16 17  1  0  0  0
 17 18  1  0  0  0
 18 19  1  0  0  0
 17 20  1  0  0  0
 20 21  2  0  0  0
 21 22  1  0  0  0
 22 23  2  0  0  0
 23 24  1  0  0  0
 24 25  1  0  0  0
 25 26  1  0  0  0
 26 27  2  0  0  0
 27 28  1  0  0  0
 13  8  1  0  0  0
  6  1  1  0  0  0
 39 34  1  0  0  0
 19 14  1  0  0  0
 28 20  1  0  0  0
 28 24  2  0  0  0
 32 33  1  0  0  0
 25 29  1  0  0  0
M  END
> <minimizedAffinity>
-6.42214

> <CNNscore>
0.0262484681

> <CNNaffinity>
5.7234311104

> <CNN_VS>
0.1502313018

> <CNNaffinity_variance>
0.1594208777

$$$$
[H]O[C@@]1([H])N(S(=O)(=O)c2c([H])c([H])c(OC([H])([H])[H])c([H])c2[H])C([H])([H])[C@@]([H])(O[H])[C@@]([H])(O[H])[C@@]1([H])O[H]


 25 26  0  0  0  0  0  0  0  0999 V2000
  -89.5629   32.0615   -2.4842 N   0  0  0  0  0  0  0  0  0  0  0  0
  -89.6088   33.4343   -2.7819 C   0  0  0  0  0  0  0  0  0  0  0  0
  -88.7260   33.9350   -3.8681 C   0  0  0  0  0  0  0  0  0  0  0  0
  -87.9792   35.0366   -3.4194 O   0  0  0  0  0  0  0  0  0  0  0  0
  -87.8143   32.9142   -4.4663 C   0  0  0  0  0  0  0  0  0  0  0  0
  -86.6178   32.7661   -3.7684 O   0  0  0  0  0  0  0  0  0  0  0  0
  -88.5422   31.6344   -4.6929 C   0  0  0  0  0  0  0  0  0  0  0  0
  -87.6357   30.6443   -5.1358 O   0  0  0  0  0  0  0  0  0  0  0  0
  -89.2979   31.1359   -3.5043 C   0  0  0  0  0  0  0  0  0  0  0  0
  -88.6148   30.0262   -2.9806 O   0  0  0  0  0  0  0  0  0  0  0  0
  -87.0287   34.9228   -3.6874 H   0  0  0  0  0  0  0  0  0  0  0  0
  -86.6559   32.1376   -3.0310 H   0  0  0  0  0  0  0  0  0  0  0  0
  -88.1193   29.9070   -5.5888 H   0  0  0  0  0  0  0  0  0  0  0  0
  -88.6893   29.3014   -3.6707 H   0  0  0  0  0  0  0  0  0  0  0  0
  -89.2299   31.6356   -0.8913 S   0  0  0  0  0  0  0  0  0  0  0  0
  -89.6842   30.2140   -0.5828 O   0  0  0  0  0  0  0  0  0  0  0  0
  -89.9011   32.5057    0.1231 O   0  0  0  0  0  0  0  0  0  0  0  0
  -84.7674   31.9127    0.0090 C   0  0  0  0  0  0  0  0  0  0  0  0
  -85.5124   33.0095   -0.3430 C   0  0  0  0  0  0  0  0  0  0  0  0
  -86.8694   32.8853   -0.6098 C   0  0  0  0  0  0  0  0  0  0  0  0
  -87.5149   31.6708   -0.5328 C   0  0  0  0  0  0  0  0  0  0  0  0
  -86.7812   30.5645   -0.1814 C   0  0  0  0  0  0  0  0  0  0  0  0
  -85.4336   30.7004    0.0813 C   0  0  0  0  0  0  0  0  0  0  0  0
  -82.7786   31.1534    1.1381 C   0  0  0  0  0  0  0  0  0  0  0  0
  -83.4298   32.0529    0.2690 O   0  0  0  0  0  0  0  0  0  0  0  0
 24 25  1  0  0  0
 25 18  1  0  0  0
 18 19  2  0  0  0
 19 20  1  0  0  0
 20 21  2  0  0  0
 21 22  1  0  0  0
 22 23  2  0  0  0
 21 15  1  0  0  0
 15 16  2  0  0  0
 15 17  2  0  0  0
 15  1  1  0  0  0
  1  2  1  0  0  0
  2  3  1  0  0  0
  3  4  1  0  0  0
  3  5  1  0  0  0
  5  6  1  0  0  0
  5  7  1  0  0  0
  7  8  1  0  0  0
  7  9  1  0  0  0
  9 10  1  0  0  0
 23 18  1  0  0  0
  9  1  1  0  0  0
  4 11  1  0  0  0
  6 12  1  0  0  0
  8 13  1  0  0  0
 10 14  1  0  0  0
M  END
> <minimizedAffinity>
-6.86263

> <CNNscore>
0.3341462314

> <CNNaffinity>
4.1421890259

> <CNN_VS>
1.3840968609

> <CNNaffinity_variance>
0.3283744454

$$$$
[H]O[C@@]1([H])N(S(=O)(=O)c2c([H])c([H])c(OC([H])([H])[H])c([H])c2[H])C([H])([H])[C@@]([H])(O[H])[C@@]([H])(O[H])[C@@]1([H])O[H]


 25 26  0  0  0  0  0  0  0  0999 V2000
  -88.3850   27.1493   -0.1025 N   0  0  0  0  0  0  0  0  0  0  0  0
  -88.1717   25.8625   -0.6259 C   0  0  0  0  0  0  0  0  0  0  0  0
  -89.3178   24.9158   -0.6192 C   0  0  0  0  0  0  0  0  0  0  0  0
  -88.9383   23.6963   -0.0350 O   0  0  0  0  0  0  0  0  0  0  0  0
  -90.5593   25.4269    0.0354 C   0  0  0  0  0  0  0  0  0  0  0  0
  -90.5800   25.2250    1.4135 O   0  0  0  0  0  0  0  0  0  0  0  0
  -90.8207   26.8360   -0.3713 C   0  0  0  0  0  0  0  0  0  0  0  0
  -91.9214   27.3439    0.3558 O   0  0  0  0  0  0  0  0  0  0  0  0
  -89.6476   27.7489   -0.2206 C   0  0  0  0  0  0  0  0  0  0  0  0
  -89.8833   28.5929    0.8770 O   0  0  0  0  0  0  0  0  0  0  0  0
  -89.6345   23.4101    0.6144 H   0  0  0  0  0  0  0  0  0  0  0  0
  -90.1527   25.9253    1.9304 H   0  0  0  0  0  0  0  0  0  0  0  0
  -92.3093   28.1315   -0.1047 H   0  0  0  0  0  0  0  0  0  0  0  0
  -90.6519   29.1826    0.6157 H   0  0  0  0  0  0  0  0  0  0  0  0
  -87.3556   27.6540    1.1284 S   0  0  0  0  0  0  0  0  0  0  0  0
  -86.2707   26.6221    1.4126 O   0  0  0  0  0  0  0  0  0  0  0  0
  -88.0424   27.8917    2.4354 O   0  0  0  0  0  0  0  0  0  0  0  0
  -84.9868   31.4276    0.1538 C   0  0  0  0  0  0  0  0  0  0  0  0
  -84.4095   30.3343    0.7480 C   0  0  0  0  0  0  0  0  0  0  0  0
  -85.1638   29.2028    1.0294 C   0  0  0  0  0  0  0  0  0  0  0  0
  -86.5059   29.1332    0.7269 C   0  0  0  0  0  0  0  0  0  0  0  0
  -87.0967   30.2206    0.1319 C   0  0  0  0  0  0  0  0  0  0  0  0
  -86.3370   31.3389   -0.1428 C   0  0  0  0  0  0  0  0  0  0  0  0
  -82.8209   32.4448   -0.1307 C   0  0  0  0  0  0  0  0  0  0  0  0
  -84.2280   32.5355   -0.1170 O   0  0  0  0  0  0  0  0  0  0  0  0
 24 25  1  0  0  0
 25 18  1  0  0  0
 18 19  2  0  0  0
 19 20  1  0  0  0
 20 21  2  0  0  0
 21 22  1  0  0  0
 22 23  2  0  0  0
 21 15  1  0  0  0
 15 16  2  0  0  0
 15 17  2  0  0  0
 15  1  1  0  0  0
  1  2  1  0  0  0
  2  3  1  0  0  0
  3  4  1  0  0  0
  3  5  1  0  0  0
  5  6  1  0  0  0
  5  7  1  0  0  0
  7  8  1  0  0  0
  7  9  1  0  0  0
  9 10  1  0  0  0
 23 18  1  0  0  0
  9  1  1  0  0  0
  4 11  1  0  0  0
  6 12  1  0  0  0
  8 13  1  0  0  0
 10 14  1  0  0  0
M  END
> <minimizedAffinity>
-6.81973

> <CNNscore>
0.3112033606

> <CNNaffinity>
4.3803830147

> <CNN_VS>
1.3631899357

> <CNNaffinity_variance>
0.1183701530

$$$$
[H]O[C@@]1([H])N(S(=O)(=O)c2c([H])c([H])c(OC([H])([H])[H])c([H])c2[H])C([H])([H])[C@@]([H])(O[H])[C@@]([H])(O[H])[C@@]1([H])O[H]


 25 26  0  0  0  0  0  0  0  0999 V2000
  -90.4787   26.6233   -1.6845 N   0  0  0  0  0  0  0  0  0  0  0  0
  -89.5175   25.5979   -1.6789 C   0  0  0  0  0  0  0  0  0  0  0  0
  -89.8996   24.2969   -1.0696 C   0  0  0  0  0  0  0  0  0  0  0  0
  -88.9338   23.8963   -0.1320 O   0  0  0  0  0  0  0  0  0  0  0  0
  -91.2565   24.2622   -0.4462 C   0  0  0  0  0  0  0  0  0  0  0  0
  -91.2699   24.7114    0.8723 O   0  0  0  0  0  0  0  0  0  0  0  0
  -92.2508   24.9403   -1.3240 C   0  0  0  0  0  0  0  0  0  0  0  0
  -93.4977   25.0127   -0.6619 O   0  0  0  0  0  0  0  0  0  0  0  0
  -91.8403   26.3012   -1.7842 C   0  0  0  0  0  0  0  0  0  0  0  0
  -92.6105   27.2514   -1.0939 O   0  0  0  0  0  0  0  0  0  0  0  0
  -89.3863   23.5939    0.7000 H   0  0  0  0  0  0  0  0  0  0  0  0
  -91.3713   25.6706    0.9708 H   0  0  0  0  0  0  0  0  0  0  0  0
  -94.2304   25.1562   -1.3141 H   0  0  0  0  0  0  0  0  0  0  0  0
  -93.5540   27.1319   -1.4142 H   0  0  0  0  0  0  0  0  0  0  0  0
  -90.0373   28.0885   -0.9862 S   0  0  0  0  0  0  0  0  0  0  0  0
  -91.0422   29.1888   -1.3055 O   0  0  0  0  0  0  0  0  0  0  0  0
  -88.7106   28.6046   -1.4446 O   0  0  0  0  0  0  0  0  0  0  0  0
  -90.0281   27.9602    3.5728 C   0  0  0  0  0  0  0  0  0  0  0  0
  -91.0430   28.5455    2.8593 C   0  0  0  0  0  0  0  0  0  0  0  0
  -91.0105   28.5650    1.4712 C   0  0  0  0  0  0  0  0  0  0  0  0
  -89.9706   28.0041    0.7630 C   0  0  0  0  0  0  0  0  0  0  0  0
  -88.9479   27.4147    1.4646 C   0  0  0  0  0  0  0  0  0  0  0  0
  -88.9914   27.4016    2.8435 C   0  0  0  0  0  0  0  0  0  0  0  0
  -89.9950   26.7299    5.6445 C   0  0  0  0  0  0  0  0  0  0  0  0
  -90.0761   27.9498    4.9418 O   0  0  0  0  0  0  0  0  0  0  0  0
 24 25  1  0  0  0
 25 18  1  0  0  0
 18 19  2  0  0  0
 19 20  1  0  0  0
 20 21  2  0  0  0
 21 22  1  0  0  0
 22 23  2  0  0  0
 21 15  1  0  0  0
 15 16  2  0  0  0
 15 17  2  0  0  0
 15  1  1  0  0  0
  1  2  1  0  0  0
  2  3  1  0  0  0
  3  4  1  0  0  0
  3  5  1  0  0  0
  5  6  1  0  0  0
  5  7  1  0  0  0
  7  8  1  0  0  0
  7  9  1  0  0  0
  9 10  1  0  0  0
 23 18  1  0  0  0
  9  1  1  0  0  0
  4 11  1  0  0  0
  6 12  1  0  0  0
  8 13  1  0  0  0
 10 14  1  0  0  0
M  END
> <minimizedAffinity>
-5.98220

> <CNNscore>
0.2493979782

> <CNNaffinity>
3.7208442688

> <CNN_VS>
0.9279710650

> <CNNaffinity_variance>
0.4320734441

$$$$
[H]O[C@@]1([H])N(S(=O)(=O)c2c([H])c([H])c(OC([H])([H])[H])c([H])c2[H])C([H])([H])[C@@]([H])(O[H])[C@@]([H])(O[H])[C@@]1([H])O[H]


 25 26  0  0  0  0  0  0  0  0999 V2000
  -89.2672   30.8431   -2.3715 N   0  0  0  0  0  0  0  0  0  0  0  0
  -88.5828   32.0565   -2.5579 C   0  0  0  0  0  0  0  0  0  0  0  0
  -88.6306   32.6755   -3.9087 C   0  0  0  0  0  0  0  0  0  0  0  0
  -87.3330   32.9840   -4.3487 O   0  0  0  0  0  0  0  0  0  0  0  0
  -89.3416   31.8739   -4.9494 C   0  0  0  0  0  0  0  0  0  0  0  0
  -88.5260   30.9337   -5.5749 O   0  0  0  0  0  0  0  0  0  0  0  0
  -90.6031   31.3054   -4.3974 C   0  0  0  0  0  0  0  0  0  0  0  0
  -91.1944   30.4464   -5.3518 O   0  0  0  0  0  0  0  0  0  0  0  0
  -90.4385   30.5851   -3.0988 C   0  0  0  0  0  0  0  0  0  0  0  0
  -90.5605   29.2069   -3.3401 O   0  0  0  0  0  0  0  0  0  0  0  0
  -87.2208   32.6774   -5.2877 H   0  0  0  0  0  0  0  0  0  0  0  0
  -88.4684   30.0811   -5.1168 H   0  0  0  0  0  0  0  0  0  0  0  0
  -92.1568   30.3150   -5.1529 H   0  0  0  0  0  0  0  0  0  0  0  0
  -91.5139   29.0547   -3.6137 H   0  0  0  0  0  0  0  0  0  0  0  0
  -88.3761   29.5467   -1.7759 S   0  0  0  0  0  0  0  0  0  0  0  0
  -87.7761   28.7126   -2.9014 O   0  0  0  0  0  0  0  0  0  0  0  0
  -89.1730   28.5931   -0.9441 O   0  0  0  0  0  0  0  0  0  0  0  0
  -84.7803   30.7079    0.7782 C   0  0  0  0  0  0  0  0  0  0  0  0
  -84.9961   29.4189    0.3612 C   0  0  0  0  0  0  0  0  0  0  0  0
  -86.1031   29.1040   -0.4158 C   0  0  0  0  0  0  0  0  0  0  0  0
  -87.0182   30.0613   -0.7949 C   0  0  0  0  0  0  0  0  0  0  0  0
  -86.8145   31.3557   -0.3845 C   0  0  0  0  0  0  0  0  0  0  0  0
  -85.7111   31.6564    0.3872 C   0  0  0  0  0  0  0  0  0  0  0  0
  -82.5940   31.6999    0.9838 C   0  0  0  0  0  0  0  0  0  0  0  0
  -83.6832   31.0012    1.5441 O   0  0  0  0  0  0  0  0  0  0  0  0
 24 25  1  0  0  0
 25 18  1  0  0  0
 18 19  2  0  0  0
 19 20  1  0  0  0
 20 21  2  0  0  0
 21 22  1  0  0  0
 22 23  2  0  0  0
 21 15  1  0  0  0
 15 16  2  0  0  0
 15 17  2  0  0  0
 15  1  1  0  0  0
  1  2  1  0  0  0
  2  3  1  0  0  0
  3  4  1  0  0  0
  3  5  1  0  0  0
  5  6  1  0  0  0
  5  7  1  0  0  0
  7  8  1  0  0  0
  7  9  1  0  0  0
  9 10  1  0  0  0
 23 18  1  0  0  0
  9  1  1  0  0  0
  4 11  1  0  0  0
  6 12  1  0  0  0
  8 13  1  0  0  0
 10 14  1  0  0  0
M  END
> <minimizedAffinity>
-7.85514

> <CNNscore>
0.2113246769

> <CNNaffinity>
4.3340325356

> <CNN_VS>
0.9158880115

> <CNNaffinity_variance>
0.1210571676

$$$$
[H]O[C@@]1([H])N(S(=O)(=O)c2c([H])c([H])c(OC([H])([H])[H])c([H])c2[H])C([H])([H])[C@@]([H])(O[H])[C@@]([H])(O[H])[C@@]1([H])O[H]


 25 26  0  0  0  0  0  0  0  0999 V2000
  -89.0181   27.9915    0.1405 N   0  0  0  0  0  0  0  0  0  0  0  0
  -88.6396   28.7074   -1.0083 C   0  0  0  0  0  0  0  0  0  0  0  0
  -89.1602   28.2354   -2.3184 C   0  0  0  0  0  0  0  0  0  0  0  0
  -88.1068   28.0854   -3.2351 O   0  0  0  0  0  0  0  0  0  0  0  0
  -89.9687   26.9806   -2.2653 C   0  0  0  0  0  0  0  0  0  0  0  0
  -89.1961   25.8231   -2.3263 O   0  0  0  0  0  0  0  0  0  0  0  0
  -90.9109   27.0162   -1.1120 C   0  0  0  0  0  0  0  0  0  0  0  0
  -91.5725   25.7720   -1.0006 O   0  0  0  0  0  0  0  0  0  0  0  0
  -90.2756   27.3722    0.1926 C   0  0  0  0  0  0  0  0  0  0  0  0
  -90.2075   26.2121    0.9814 O   0  0  0  0  0  0  0  0  0  0  0  0
  -88.1983   27.2135   -3.7039 H   0  0  0  0  0  0  0  0  0  0  0  0
  -88.8645   25.5136   -1.4693 H   0  0  0  0  0  0  0  0  0  0  0  0
  -92.4056   25.8667   -0.4716 H   0  0  0  0  0  0  0  0  0  0  0  0
  -91.1557   25.9680    1.2012 H   0  0  0  0  0  0  0  0  0  0  0  0
  -87.7810   27.4066    1.1187 S   0  0  0  0  0  0  0  0  0  0  0  0
  -87.2349   26.0809    0.6022 O   0  0  0  0  0  0  0  0  0  0  0  0
  -88.1940   27.1522    2.5334 O   0  0  0  0  0  0  0  0  0  0  0  0
  -84.2025   30.2128    1.4666 C   0  0  0  0  0  0  0  0  0  0  0  0
  -84.7996   29.6487    2.5652 C   0  0  0  0  0  0  0  0  0  0  0  0
  -85.8879   28.7987    2.4191 C   0  0  0  0  0  0  0  0  0  0  0  0
  -86.4057   28.4911    1.1803 C   0  0  0  0  0  0  0  0  0  0  0  0
  -85.8177   29.0488    0.0718 C   0  0  0  0  0  0  0  0  0  0  0  0
  -84.7370   29.8918    0.2296 C   0  0  0  0  0  0  0  0  0  0  0  0
  -82.5939   31.7374    0.5207 C   0  0  0  0  0  0  0  0  0  0  0  0
  -83.1297   31.0491    1.6286 O   0  0  0  0  0  0  0  0  0  0  0  0
 24 25  1  0  0  0
 25 18  1  0  0  0
 18 19  2  0  0  0
 19 20  1  0  0  0
 20 21  2  0  0  0
 21 22  1  0  0  0
 22 23  2  0  0  0
 21 15  1  0  0  0
 15 16  2  0  0  0
 15 17  2  0  0  0
 15  1  1  0  0  0
  1  2  1  0  0  0
  2  3  1  0  0  0
  3  4  1  0  0  0
  3  5  1  0  0  0
  5  6  1  0  0  0
  5  7  1  0  0  0
  7  8  1  0  0  0
  7  9  1  0  0  0
  9 10  1  0  0  0
 23 18  1  0  0  0
  9  1  1  0  0  0
  4 11  1  0  0  0
  6 12  1  0  0  0
  8 13  1  0  0  0
 10 14  1  0  0  0
M  END
> <minimizedAffinity>
-7.36942

> <CNNscore>
0.1600831598

> <CNNaffinity>
4.1238007545

> <CNN_VS>
0.6601510644

> <CNNaffinity_variance>
0.3671340346

$$$$
[H]O[C@@]1([H])N(S(=O)(=O)c2c([H])c([H])c(OC([H])([H])[H])c([H])c2[H])C([H])([H])[C@@]([H])(O[H])[C@@]([H])(O[H])[C@@]1([H])O[H]


 25 26  0  0  0  0  0  0  0  0999 V2000
  -90.2393   27.1969   -0.7831 N   0  0  0  0  0  0  0  0  0  0  0  0
  -88.9028   26.8217   -1.0031 C   0  0  0  0  0  0  0  0  0  0  0  0
  -88.4957   25.4499   -0.5999 C   0  0  0  0  0  0  0  0  0  0  0  0
  -87.3437   25.5001    0.2018 O   0  0  0  0  0  0  0  0  0  0  0  0
  -89.5548   24.6488    0.0839 C   0  0  0  0  0  0  0  0  0  0  0  0
  -89.6148   24.8715    1.4577 O   0  0  0  0  0  0  0  0  0  0  0  0
  -90.8623   24.8126   -0.6109 C   0  0  0  0  0  0  0  0  0  0  0  0
  -91.8758   24.1548    0.1228 O   0  0  0  0  0  0  0  0  0  0  0  0
  -91.2552   26.2326   -0.8589 C   0  0  0  0  0  0  0  0  0  0  0  0
  -92.2975   26.5626    0.0228 O   0  0  0  0  0  0  0  0  0  0  0  0
  -87.4675   24.9142    0.9954 H   0  0  0  0  0  0  0  0  0  0  0  0
  -90.1692   25.6221    1.7209 H   0  0  0  0  0  0  0  0  0  0  0  0
  -92.6615   23.9736   -0.4540 H   0  0  0  0  0  0  0  0  0  0  0  0
  -93.0870   26.0113   -0.2597 H   0  0  0  0  0  0  0  0  0  0  0  0
  -90.5029   28.5881    0.1250 S   0  0  0  0  0  0  0  0  0  0  0  0
  -90.4364   28.3041    1.6208 O   0  0  0  0  0  0  0  0  0  0  0  0
  -91.8369   29.2224   -0.1090 O   0  0  0  0  0  0  0  0  0  0  0  0
  -87.5003   31.9202   -0.7009 C   0  0  0  0  0  0  0  0  0  0  0  0
  -88.8522   32.1006   -0.8476 C   0  0  0  0  0  0  0  0  0  0  0  0
  -89.7357   31.0615   -0.5866 C   0  0  0  0  0  0  0  0  0  0  0  0
  -89.2959   29.8228   -0.1747 C   0  0  0  0  0  0  0  0  0  0  0  0
  -87.9450   29.6283   -0.0238 C   0  0  0  0  0  0  0  0  0  0  0  0
  -87.0771   30.6682   -0.2861 C   0  0  0  0  0  0  0  0  0  0  0  0
  -85.4001   33.0317   -0.3005 C   0  0  0  0  0  0  0  0  0  0  0  0
  -86.6428   32.9560   -0.9625 O   0  0  0  0  0  0  0  0  0  0  0  0
 24 25  1  0  0  0
 25 18  1  0  0  0
 18 19  2  0  0  0
 19 20  1  0  0  0
 20 21  2  0  0  0
 21 22  1  0  0  0
 22 23  2  0  0  0
 21 15  1  0  0  0
 15 16  2  0  0  0
 15 17  2  0  0  0
 15  1  1  0  0  0
  1  2  1  0  0  0
  2  3  1  0  0  0
  3  4  1  0  0  0
  3  5  1  0  0  0
  5  6  1  0  0  0
  5  7  1  0  0  0
  7  8  1  0  0  0
  7  9  1  0  0  0
  9 10  1  0  0  0
 23 18  1  0  0  0
  9  1  1  0  0  0
  4 11  1  0  0  0
  6 12  1  0  0  0
  8 13  1  0  0  0
 10 14  1  0  0  0
M  END
> <minimizedAffinity>
-6.25990

> <CNNscore>
0.1510796845

> <CNNaffinity>
3.9746508598

> <CNN_VS>
0.6004890203

> <CNNaffinity_variance>
0.1582727879

$$$$
[H]O[C@@]1([H])N(S(=O)(=O)c2c([H])c([H])c(OC([H])([H])[H])c([H])c2[H])C([H])([H])[C@@]([H])(O[H])[C@@]([H])(O[H])[C@@]1([H])O[H]


 25 26  0  0  0  0  0  0  0  0999 V2000
  -91.1993   25.1169    0.9279 N   0  0  0  0  0  0  0  0  0  0  0  0
  -90.8847   25.0979   -0.4417 C   0  0  0  0  0  0  0  0  0  0  0  0
  -90.5533   23.7851   -1.0557 C   0  0  0  0  0  0  0  0  0  0  0  0
  -89.3411   23.8694   -1.7599 O   0  0  0  0  0  0  0  0  0  0  0  0
  -90.5087   22.6333   -0.1057 C   0  0  0  0  0  0  0  0  0  0  0  0
  -89.2736   22.4816    0.5205 O   0  0  0  0  0  0  0  0  0  0  0  0
  -91.6598   22.6915    0.8381 C   0  0  0  0  0  0  0  0  0  0  0  0
  -91.5303   21.6718    1.8086 O   0  0  0  0  0  0  0  0  0  0  0  0
  -91.8393   24.0133    1.5111 C   0  0  0  0  0  0  0  0  0  0  0  0
  -91.4447   23.8827    2.8527 O   0  0  0  0  0  0  0  0  0  0  0  0
  -88.7704   23.0884   -1.5302 H   0  0  0  0  0  0  0  0  0  0  0  0
  -89.1630   23.0076    1.3275 H   0  0  0  0  0  0  0  0  0  0  0  0
  -92.4055   21.4833    2.2345 H   0  0  0  0  0  0  0  0  0  0  0  0
  -92.1127   23.2689    3.2817 H   0  0  0  0  0  0  0  0  0  0  0  0
  -90.2951   26.1444    1.9057 S   0  0  0  0  0  0  0  0  0  0  0  0
  -88.9670   25.5140    2.3072 O   0  0  0  0  0  0  0  0  0  0  0  0
  -90.9720   26.5156    3.1865 O   0  0  0  0  0  0  0  0  0  0  0  0
  -89.0368   29.9905   -0.1979 C   0  0  0  0  0  0  0  0  0  0  0  0
  -88.1390   29.0036    0.1212 C   0  0  0  0  0  0  0  0  0  0  0  0
  -88.5603   27.8460    0.7622 C   0  0  0  0  0  0  0  0  0  0  0  0
  -89.8806   27.6440    1.0993 C   0  0  0  0  0  0  0  0  0  0  0  0
  -90.7900   28.6239    0.7857 C   0  0  0  0  0  0  0  0  0  0  0  0
  -90.3595   29.7696    0.1490 C   0  0  0  0  0  0  0  0  0  0  0  0
  -89.3163   32.3342   -0.6830 C   0  0  0  0  0  0  0  0  0  0  0  0
  -88.6042   31.1261   -0.8302 O   0  0  0  0  0  0  0  0  0  0  0  0
 24 25  1  0  0  0
 25 18  1  0  0  0
 18 19  2  0  0  0
 19 20  1  0  0  0
 20 21  2  0  0  0
 21 22  1  0  0  0
 22 23  2  0  0  0
 21 15  1  0  0  0
 15 16  2  0  0  0
 15 17  2  0  0  0
 15  1  1  0  0  0
  1  2  1  0  0  0
  2  3  1  0  0  0
  3  4  1  0  0  0
  3  5  1  0  0  0
  5  6  1  0  0  0
  5  7  1  0  0  0
  7  8  1  0  0  0
  7  9  1  0  0  0
  9 10  1  0  0  0
 23 18  1  0  0  0
  9  1  1  0  0  0
  4 11  1  0  0  0
  6 12  1  0  0  0
  8 13  1  0  0  0
 10 14  1  0  0  0
M  END
> <minimizedAffinity>
-5.77498

> <CNNscore>
0.1497084647

> <CNNaffinity>
4.1178307533

> <CNN_VS>
0.6164740920

> <CNNaffinity_variance>
0.1067353263

$$$$
[H]O[C@@]1([H])N(S(=O)(=O)c2c([H])c([H])c(OC([H])([H])[H])c([H])c2[H])C([H])([H])[C@@]([H])(O[H])[C@@]([H])(O[H])[C@@]1([H])O[H]


 25 26  0  0  0  0  0  0  0  0999 V2000
  -90.0556   30.3785   -2.9076 N   0  0  0  0  0  0  0  0  0  0  0  0
  -90.6288   30.8290   -4.1092 C   0  0  0  0  0  0  0  0  0  0  0  0
  -91.9249   30.2299   -4.5230 C   0  0  0  0  0  0  0  0  0  0  0  0
  -91.8488   29.7737   -5.8491 O   0  0  0  0  0  0  0  0  0  0  0  0
  -92.4298   29.1369   -3.6390 C   0  0  0  0  0  0  0  0  0  0  0  0
  -91.9189   27.8827   -3.9650 O   0  0  0  0  0  0  0  0  0  0  0  0
  -92.2569   29.5042   -2.2057 C   0  0  0  0  0  0  0  0  0  0  0  0
  -92.6180   28.4092   -1.3879 O   0  0  0  0  0  0  0  0  0  0  0  0
  -90.8832   29.9721   -1.8504 C   0  0  0  0  0  0  0  0  0  0  0  0
  -90.2514   28.9620   -1.1067 O   0  0  0  0  0  0  0  0  0  0  0  0
  -92.2360   28.8599   -5.9070 H   0  0  0  0  0  0  0  0  0  0  0  0
  -91.0679   27.6734   -3.5502 H   0  0  0  0  0  0  0  0  0  0  0  0
  -92.8187   28.7142   -0.4662 H   0  0  0  0  0  0  0  0  0  0  0  0
  -90.7492   28.9027   -0.2373 H   0  0  0  0  0  0  0  0  0  0  0  0
  -88.4837   29.7850   -2.9859 S   0  0  0  0  0  0  0  0  0  0  0  0
  -87.7796   30.2250   -4.2638 O   0  0  0  0  0  0  0  0  0  0  0  0
  -88.3965   28.2922   -2.9675 O   0  0  0  0  0  0  0  0  0  0  0  0
  -85.8295   31.1204    0.4743 C   0  0  0  0  0  0  0  0  0  0  0  0
  -85.9860   29.7993    0.1398 C   0  0  0  0  0  0  0  0  0  0  0  0
  -86.8033   29.4314   -0.9209 C   0  0  0  0  0  0  0  0  0  0  0  0
  -87.4815   30.3667   -1.6712 C   0  0  0  0  0  0  0  0  0  0  0  0
  -87.3338   31.6929   -1.3473 C   0  0  0  0  0  0  0  0  0  0  0  0
  -86.5192   32.0460   -0.2913 C   0  0  0  0  0  0  0  0  0  0  0  0
  -83.6172   31.4153    1.3830 C   0  0  0  0  0  0  0  0  0  0  0  0
  -85.0194   31.4658    1.5236 O   0  0  0  0  0  0  0  0  0  0  0  0
 24 25  1  0  0  0
 25 18  1  0  0  0
 18 19  2  0  0  0
 19 20  1  0  0  0
 20 21  2  0  0  0
 21 22  1  0  0  0
 22 23  2  0  0  0
 21 15  1  0  0  0
 15 16  2  0  0  0
 15 17  2  0  0  0
 15  1  1  0  0  0
  1  2  1  0  0  0
  2  3  1  0  0  0
  3  4  1  0  0  0
  3  5  1  0  0  0
  5  6  1  0  0  0
  5  7  1  0  0  0
  7  8  1  0  0  0
  7  9  1  0  0  0
  9 10  1  0  0  0
 23 18  1  0  0  0
  9  1  1  0  0  0
  4 11  1  0  0  0
  6 12  1  0  0  0
  8 13  1  0  0  0
 10 14  1  0  0  0
M  END
> <minimizedAffinity>
-7.10895

> <CNNscore>
0.1401135325

> <CNNaffinity>
3.9296977520

> <CNN_VS>
0.5506038070

> <CNNaffinity_variance>
0.1547065526

$$$$
[H]O[C@@]1([H])N(S(=O)(=O)c2c([H])c([H])c(OC([H])([H])[H])c([H])c2[H])C([H])([H])[C@@]([H])(O[H])[C@@]([H])(O[H])[C@@]1([H])O[H]


 25 26  0  0  0  0  0  0  0  0999 V2000
  -88.0148   32.5716   -4.2848 N   0  0  0  0  0  0  0  0  0  0  0  0
  -87.1656   32.9557   -3.2328 C   0  0  0  0  0  0  0  0  0  0  0  0
  -87.1286   32.0904   -2.0246 C   0  0  0  0  0  0  0  0  0  0  0  0
  -87.3274   32.8613   -0.8676 O   0  0  0  0  0  0  0  0  0  0  0  0
  -88.0822   30.9407   -2.0378 C   0  0  0  0  0  0  0  0  0  0  0  0
  -89.3536   31.2727   -1.5757 O   0  0  0  0  0  0  0  0  0  0  0  0
  -88.0799   30.2772   -3.3716 C   0  0  0  0  0  0  0  0  0  0  0  0
  -89.0789   29.2777   -3.4065 O   0  0  0  0  0  0  0  0  0  0  0  0
  -88.2547   31.2106   -4.5250 C   0  0  0  0  0  0  0  0  0  0  0  0
  -89.5484   31.0348   -5.0428 O   0  0  0  0  0  0  0  0  0  0  0  0
  -87.9923   32.4116   -0.2810 H   0  0  0  0  0  0  0  0  0  0  0  0
  -89.9486   31.6298   -2.2529 H   0  0  0  0  0  0  0  0  0  0  0  0
  -88.8943   28.6260   -4.1305 H   0  0  0  0  0  0  0  0  0  0  0  0
  -89.5682   30.1123   -5.4373 H   0  0  0  0  0  0  0  0  0  0  0  0
  -89.1461   33.7024   -4.8055 S   0  0  0  0  0  0  0  0  0  0  0  0
  -90.3855   33.7071   -3.9188 O   0  0  0  0  0  0  0  0  0  0  0  0
  -89.6428   33.4683   -6.1966 O   0  0  0  0  0  0  0  0  0  0  0  0
  -87.6232   37.9919   -4.5195 C   0  0  0  0  0  0  0  0  0  0  0  0
  -88.4294   37.4360   -3.5588 C   0  0  0  0  0  0  0  0  0  0  0  0
  -88.8734   36.1259   -3.6810 C   0  0  0  0  0  0  0  0  0  0  0  0
  -88.5264   35.3409   -4.7585 C   0  0  0  0  0  0  0  0  0  0  0  0
  -87.7197   35.8847   -5.7276 C   0  0  0  0  0  0  0  0  0  0  0  0
  -87.2850   37.1873   -5.5952 C   0  0  0  0  0  0  0  0  0  0  0  0
  -86.6391   39.7235   -3.1631 C   0  0  0  0  0  0  0  0  0  0  0  0
  -87.1941   39.2856   -4.3832 O   0  0  0  0  0  0  0  0  0  0  0  0
 24 25  1  0  0  0
 25 18  1  0  0  0
 18 19  2  0  0  0
 19 20  1  0  0  0
 20 21  2  0  0  0
 21 22  1  0  0  0
 22 23  2  0  0  0
 21 15  1  0  0  0
 15 16  2  0  0  0
 15 17  2  0  0  0
 15  1  1  0  0  0
  1  2  1  0  0  0
  2  3  1  0  0  0
  3  4  1  0  0  0
  3  5  1  0  0  0
  5  6  1  0  0  0
  5  7  1  0  0  0
  7  8  1  0  0  0
  7  9  1  0  0  0
  9 10  1  0  0  0
 23 18  1  0  0  0
  9  1  1  0  0  0
  4 11  1  0  0  0
  6 12  1  0  0  0
  8 13  1  0  0  0
 10 14  1  0  0  0
M  END
> <minimizedAffinity>
-5.73218

> <CNNscore>
0.1157972664

> <CNNaffinity>
3.5456919670

> <CNN_VS>
0.4105814397

> <CNNaffinity_variance>
0.3511210084

$$$$
[H]c1nc(N([H])c2c([H])c([H])c(N3C([H])([H])C([H])([H])C([H])([N+](=O)[O-])C([H])([H])C3([H])[H])c([H])c2OC([H])([H])[H])nc(N([H])c2c([H])c([H])c([H])c([H])c2S(=O)(=O)C([H])(C([H])([H])[H])C([H])([H])[H])c1Cl


 40 43  0  0  0  0  0  0  0  0999 V2000
  -85.6567   33.0774   -1.9941 C   0  0  0  0  0  0  0  0  0  0  0  0
  -84.4809   33.4416   -1.4772 N   0  0  0  0  0  0  0  0  0  0  0  0
  -84.0071   33.0105   -0.3158 C   0  0  0  0  0  0  0  0  0  0  0  0
  -84.7406   32.1263    0.4455 C   0  0  0  0  0  0  0  0  0  0  0  0
  -84.1576   31.5301    1.9845 Cl  0  0  0  0  0  0  0  0  0  0  0  0
  -85.9898   31.7131   -0.0611 C   0  0  0  0  0  0  0  0  0  0  0  0
  -86.3692   32.2081   -1.2380 N   0  0  0  0  0  0  0  0  0  0  0  0
  -86.1996   33.5187   -3.2240 N   0  0  0  0  0  0  0  0  0  0  0  0
  -85.7089   33.1288   -4.0938 H   0  0  0  0  0  0  0  0  0  0  0  0
  -88.5152   33.7934   -3.7203 C   0  0  0  0  0  0  0  0  0  0  0  0
  -89.6541   34.5394   -3.9444 C   0  0  0  0  0  0  0  0  0  0  0  0
  -89.6271   35.9087   -3.8799 C   0  0  0  0  0  0  0  0  0  0  0  0
  -88.4247   36.5146   -3.5851 C   0  0  0  0  0  0  0  0  0  0  0  0
  -87.2704   35.7500   -3.3586 C   0  0  0  0  0  0  0  0  0  0  0  0
  -87.2684   34.3841   -3.4153 C   0  0  0  0  0  0  0  0  0  0  0  0
  -90.8172   36.6587   -4.0836 N   0  0  0  0  0  0  0  0  0  0  0  0
  -92.0531   35.9785   -4.3434 C   0  0  0  0  0  0  0  0  0  0  0  0
  -93.0592   36.7650   -5.1325 C   0  0  0  0  0  0  0  0  0  0  0  0
  -92.9189   38.2453   -5.0468 C   0  0  0  0  0  0  0  0  0  0  0  0
  -92.0727   38.7263   -3.8963 C   0  0  0  0  0  0  0  0  0  0  0  0
  -90.7073   38.1074   -4.0213 C   0  0  0  0  0  0  0  0  0  0  0  0
  -94.2297   38.8943   -4.8907 N   0  0  0  0  0  0  0  0  0  0  0  0
  -94.7681   39.5894   -5.9417 O   0  0  0  0  0  0  0  0  0  0  0  0
  -94.8612   38.8277   -3.8204 O   0  0  0  0  0  0  0  0  0  0  0  0
  -88.8060   31.7914   -5.0403 C   0  0  0  0  0  0  0  0  0  0  0  0
  -88.6167   32.4352   -3.8001 O   0  0  0  0  0  0  0  0  0  0  0  0
  -86.7362   30.8182    0.7262 N   0  0  0  0  0  0  0  0  0  0  0  0
  -87.4585   31.2802    1.3686 H   0  0  0  0  0  0  0  0  0  0  0  0
  -86.7133   29.4131    0.7931 C   0  0  0  0  0  0  0  0  0  0  0  0
  -85.6989   28.7235    1.4054 C   0  0  0  0  0  0  0  0  0  0  0  0
  -85.7198   27.3332    1.4082 C   0  0  0  0  0  0  0  0  0  0  0  0
  -86.7346   26.6269    0.8117 C   0  0  0  0  0  0  0  0  0  0  0  0
  -87.7401   27.3530    0.2052 C   0  0  0  0  0  0  0  0  0  0  0  0
  -87.7773   28.7409    0.1682 C   0  0  0  0  0  0  0  0  0  0  0  0
  -89.1168   29.5508   -0.5934 S   0  0  0  0  0  0  0  0  0  0  0  0
  -88.7424   29.7408   -2.0646 O   0  0  0  0  0  0  0  0  0  0  0  0
  -89.3060   30.9582   -0.0949 O   0  0  0  0  0  0  0  0  0  0  0  0
  -90.6175   28.6395   -0.6070 C   0  0  0  0  0  0  0  0  0  0  0  0
  -91.1831   28.6490    0.8258 C   0  0  0  0  0  0  0  0  0  0  0  0
  -91.6568   29.3847   -1.4282 C   0  0  0  0  0  0  0  0  0  0  0  0
 25 26  1  0  0  0
 26 10  1  0  0  0
 10 11  2  0  0  0
 11 12  1  0  0  0
 12 13  2  0  0  0
 13 14  1  0  0  0
 14 15  2  0  0  0
 15  8  1  0  0  0
  8  1  1  0  0  0
  1  2  2  0  0  0
  2  3  1  0  0  0
  3  4  2  0  0  0
  4  5  1  0  0  0
  4  6  1  0  0  0
  6 27  1  0  0  0
 27 29  1  0  0  0
 29 30  2  0  0  0
 30 31  1  0  0  0
 31 32  2  0  0  0
 32 33  1  0  0  0
 33 34  2  0  0  0
 34 35  1  0  0  0
 35 36  2  0  0  0
 35 37  2  0  0  0
 35 38  1  0  0  0
 38 39  1  0  0  0
 38 40  1  0  0  0
  6  7  2  0  0  0
 12 16  1  0  0  0
 16 17  1  0  0  0
 17 18  1  0  0  0
 18 19  1  0  0  0
 19 20  1  0  0  0
 20 21  1  0  0  0
 19 22  1  0  0  0
 22 23  1  0  0  0
 22 24  2  0  0  0
 15 10  1  0  0  0
  7  1  1  0  0  0
 21 16  1  0  0  0
 34 29  1  0  0  0
  8  9  1  0  0  0
 27 28  1  0  0  0
M  CHG 1  22   1
M  CHG 1  23  -1
M  END
> <minimizedAffinity>
-7.28521

> <CNNscore>
0.6435465217

> <CNNaffinity>
7.5549149513

> <CNN_VS>
4.8619394302

> <CNNaffinity_variance>
0.1019828767

$$$$
[H]c1nc(N([H])c2c([H])c([H])c(N3C([H])([H])C([H])([H])C([H])([N+](=O)[O-])C([H])([H])C3([H])[H])c([H])c2OC([H])([H])[H])nc(N([H])c2c([H])c([H])c([H])c([H])c2S(=O)(=O)C([H])(C([H])([H])[H])C([H])([H])[H])c1Cl


 40 43  0  0  0  0  0  0  0  0999 V2000
  -87.2256   26.9176   -0.0812 C   0  0  0  0  0  0  0  0  0  0  0  0
  -86.7389   26.3459    1.0227 N   0  0  0  0  0  0  0  0  0  0  0  0
  -86.1973   27.0107    2.0346 C   0  0  0  0  0  0  0  0  0  0  0  0
  -86.1082   28.3854    1.9907 C   0  0  0  0  0  0  0  0  0  0  0  0
  -85.4015   29.3062    3.3010 Cl  0  0  0  0  0  0  0  0  0  0  0  0
  -86.6101   29.0331    0.8435 C   0  0  0  0  0  0  0  0  0  0  0  0
  -87.1332   28.2687   -0.1138 N   0  0  0  0  0  0  0  0  0  0  0  0
  -87.8040   26.2447   -1.1832 N   0  0  0  0  0  0  0  0  0  0  0  0
  -87.2468   25.3974   -1.5312 H   0  0  0  0  0  0  0  0  0  0  0  0
  -89.8878   25.5014   -2.0717 C   0  0  0  0  0  0  0  0  0  0  0  0
  -91.0888   25.6788   -2.7273 C   0  0  0  0  0  0  0  0  0  0  0  0
  -91.4640   26.9116   -3.1956 C   0  0  0  0  0  0  0  0  0  0  0  0
  -90.6012   27.9668   -2.9907 C   0  0  0  0  0  0  0  0  0  0  0  0
  -89.3814   27.7794   -2.3234 C   0  0  0  0  0  0  0  0  0  0  0  0
  -88.9824   26.5624   -1.8453 C   0  0  0  0  0  0  0  0  0  0  0  0
  -92.7189   27.0806   -3.8415 N   0  0  0  0  0  0  0  0  0  0  0  0
  -92.8412   26.8086   -5.2445 C   0  0  0  0  0  0  0  0  0  0  0  0
  -93.9296   27.5666   -5.9476 C   0  0  0  0  0  0  0  0  0  0  0  0
  -95.0527   28.0188   -5.0803 C   0  0  0  0  0  0  0  0  0  0  0  0
  -95.1312   27.3214   -3.7468 C   0  0  0  0  0  0  0  0  0  0  0  0
  -93.8305   27.5367   -3.0223 C   0  0  0  0  0  0  0  0  0  0  0  0
  -96.3511   27.7977   -5.7354 N   0  0  0  0  0  0  0  0  0  0  0  0
  -96.7494   28.6351   -6.7441 O   0  0  0  0  0  0  0  0  0  0  0  0
  -97.0992   26.8650   -5.3904 O   0  0  0  0  0  0  0  0  0  0  0  0
  -90.1813   23.7146   -0.4730 C   0  0  0  0  0  0  0  0  0  0  0  0
  -89.5804   24.2469   -1.6323 O   0  0  0  0  0  0  0  0  0  0  0  0
  -86.5068   30.4350    0.8023 N   0  0  0  0  0  0  0  0  0  0  0  0
  -87.3538   30.9595    1.1964 H   0  0  0  0  0  0  0  0  0  0  0  0
  -85.4647   31.2673    0.3544 C   0  0  0  0  0  0  0  0  0  0  0  0
  -84.2154   31.2482    0.9187 C   0  0  0  0  0  0  0  0  0  0  0  0
  -83.2386   32.1200    0.4504 C   0  0  0  0  0  0  0  0  0  0  0  0
  -83.4914   33.0048   -0.5683 C   0  0  0  0  0  0  0  0  0  0  0  0
  -84.7596   32.9965   -1.1141 C   0  0  0  0  0  0  0  0  0  0  0  0
  -85.7777   32.1516   -0.6918 C   0  0  0  0  0  0  0  0  0  0  0  0
  -87.3287   32.2037   -1.4805 S   0  0  0  0  0  0  0  0  0  0  0  0
  -88.3661   32.5138   -0.3997 O   0  0  0  0  0  0  0  0  0  0  0  0
  -87.7600   30.8610   -2.0061 O   0  0  0  0  0  0  0  0  0  0  0  0
  -87.5047   33.4771   -2.6764 C   0  0  0  0  0  0  0  0  0  0  0  0
  -87.4085   32.8266   -4.0694 C   0  0  0  0  0  0  0  0  0  0  0  0
  -88.9162   34.0374   -2.6178 C   0  0  0  0  0  0  0  0  0  0  0  0
 25 26  1  0  0  0
 26 10  1  0  0  0
 10 11  2  0  0  0
 11 12  1  0  0  0
 12 13  2  0  0  0
 13 14  1  0  0  0
 14 15  2  0  0  0
 15  8  1  0  0  0
  8  1  1  0  0  0
  1  2  2  0  0  0
  2  3  1  0  0  0
  3  4  2  0  0  0
  4  5  1  0  0  0
  4  6  1  0  0  0
  6 27  1  0  0  0
 27 29  1  0  0  0
 29 30  2  0  0  0
 30 31  1  0  0  0
 31 32  2  0  0  0
 32 33  1  0  0  0
 33 34  2  0  0  0
 34 35  1  0  0  0
 35 36  2  0  0  0
 35 37  2  0  0  0
 35 38  1  0  0  0
 38 39  1  0  0  0
 38 40  1  0  0  0
  6  7  2  0  0  0
 12 16  1  0  0  0
 16 17  1  0  0  0
 17 18  1  0  0  0
 18 19  1  0  0  0
 19 20  1  0  0  0
 20 21  1  0  0  0
 19 22  1  0  0  0
 22 23  1  0  0  0
 22 24  2  0  0  0
 15 10  1  0  0  0
  7  1  1  0  0  0
 21 16  1  0  0  0
 34 29  1  0  0  0
  8  9  1  0  0  0
 27 28  1  0  0  0
M  CHG 1  22   1
M  CHG 1  23  -1
M  END
> <minimizedAffinity>
-7.98697

> <CNNscore>
0.1953342259

> <CNNaffinity>
6.5981001854

> <CNN_VS>
1.2888348103

> <CNNaffinity_variance>
0.7961401939

$$$$
[H]c1nc(N([H])c2c([H])c([H])c(N3C([H])([H])C([H])([H])C([H])([N+](=O)[O-])C([H])([H])C3([H])[H])c([H])c2OC([H])([H])[H])nc(N([H])c2c([H])c([H])c([H])c([H])c2S(=O)(=O)C([H])(C([H])([H])[H])C([H])([H])[H])c1Cl


 40 43  0  0  0  0  0  0  0  0999 V2000
  -89.0356   32.9303   -2.5598 C   0  0  0  0  0  0  0  0  0  0  0  0
  -88.2653   33.9777   -2.8633 N   0  0  0  0  0  0  0  0  0  0  0  0
  -87.0408   34.1691   -2.3911 C   0  0  0  0  0  0  0  0  0  0  0  0
  -86.4819   33.2535   -1.5257 C   0  0  0  0  0  0  0  0  0  0  0  0
  -84.8701   33.4632   -0.8758 Cl  0  0  0  0  0  0  0  0  0  0  0  0
  -87.2591   32.1302   -1.1768 C   0  0  0  0  0  0  0  0  0  0  0  0
  -88.4766   32.0367   -1.7090 N   0  0  0  0  0  0  0  0  0  0  0  0
  -90.3466   32.6935   -3.0364 N   0  0  0  0  0  0  0  0  0  0  0  0
  -90.9418   33.5761   -3.1624 H   0  0  0  0  0  0  0  0  0  0  0  0
  -91.5446   31.3624   -4.6103 C   0  0  0  0  0  0  0  0  0  0  0  0
  -92.1673   30.2069   -5.0355 C   0  0  0  0  0  0  0  0  0  0  0  0
  -92.2157   29.0939   -4.2363 C   0  0  0  0  0  0  0  0  0  0  0  0
  -91.6228   29.1683   -2.9943 C   0  0  0  0  0  0  0  0  0  0  0  0
  -90.9915   30.3465   -2.5680 C   0  0  0  0  0  0  0  0  0  0  0  0
  -90.9272   31.4702   -3.3438 C   0  0  0  0  0  0  0  0  0  0  0  0
  -92.8350   27.9030   -4.7040 N   0  0  0  0  0  0  0  0  0  0  0  0
  -92.9504   27.6655   -6.1138 C   0  0  0  0  0  0  0  0  0  0  0  0
  -94.0967   26.7851   -6.5196 C   0  0  0  0  0  0  0  0  0  0  0  0
  -94.5820   25.8476   -5.4690 C   0  0  0  0  0  0  0  0  0  0  0  0
  -93.6215   25.6391   -4.3267 C   0  0  0  0  0  0  0  0  0  0  0  0
  -93.3330   26.9760   -3.7003 C   0  0  0  0  0  0  0  0  0  0  0  0
  -94.8477   24.5139   -6.0297 N   0  0  0  0  0  0  0  0  0  0  0  0
  -94.7635   24.3220   -7.3838 O   0  0  0  0  0  0  0  0  0  0  0  0
  -95.1508   23.5535   -5.2986 O   0  0  0  0  0  0  0  0  0  0  0  0
  -92.7350   32.9662   -5.9687 C   0  0  0  0  0  0  0  0  0  0  0  0
  -91.5343   32.4306   -5.4589 O   0  0  0  0  0  0  0  0  0  0  0  0
  -86.6853   31.2056   -0.2859 N   0  0  0  0  0  0  0  0  0  0  0  0
  -85.8686   31.5872    0.2930 H   0  0  0  0  0  0  0  0  0  0  0  0
  -87.0210   29.8682   -0.0064 C   0  0  0  0  0  0  0  0  0  0  0  0
  -88.0206   29.2073   -0.6724 C   0  0  0  0  0  0  0  0  0  0  0  0
  -88.3243   27.8956   -0.3253 C   0  0  0  0  0  0  0  0  0  0  0  0
  -87.6466   27.2391    0.6718 C   0  0  0  0  0  0  0  0  0  0  0  0
  -86.6458   27.9341    1.3210 C   0  0  0  0  0  0  0  0  0  0  0  0
  -86.2944   29.2440    1.0217 C   0  0  0  0  0  0  0  0  0  0  0  0
  -84.9884   30.0081    1.8822 S   0  0  0  0  0  0  0  0  0  0  0  0
  -84.9390   29.3700    3.2719 O   0  0  0  0  0  0  0  0  0  0  0  0
  -85.2534   31.4609    2.1724 O   0  0  0  0  0  0  0  0  0  0  0  0
  -83.3964   29.7447    1.1903 C   0  0  0  0  0  0  0  0  0  0  0  0
  -82.6564   31.0957    1.1925 C   0  0  0  0  0  0  0  0  0  0  0  0
  -82.5778   28.8642    2.1200 C   0  0  0  0  0  0  0  0  0  0  0  0
 25 26  1  0  0  0
 26 10  1  0  0  0
 10 11  2  0  0  0
 11 12  1  0  0  0
 12 13  2  0  0  0
 13 14  1  0  0  0
 14 15  2  0  0  0
 15  8  1  0  0  0
  8  1  1  0  0  0
  1  2  2  0  0  0
  2  3  1  0  0  0
  3  4  2  0  0  0
  4  5  1  0  0  0
  4  6  1  0  0  0
  6 27  1  0  0  0
 27 29  1  0  0  0
 29 30  2  0  0  0
 30 31  1  0  0  0
 31 32  2  0  0  0
 32 33  1  0  0  0
 33 34  2  0  0  0
 34 35  1  0  0  0
 35 36  2  0  0  0
 35 37  2  0  0  0
 35 38  1  0  0  0
 38 39  1  0  0  0
 38 40  1  0  0  0
  6  7  2  0  0  0
 12 16  1  0  0  0
 16 17  1  0  0  0
 17 18  1  0  0  0
 18 19  1  0  0  0
 19 20  1  0  0  0
 20 21  1  0  0  0
 19 22  1  0  0  0
 22 23  1  0  0  0
 22 24  2  0  0  0
 15 10  1  0  0  0
  7  1  1  0  0  0
 21 16  1  0  0  0
 34 29  1  0  0  0
  8  9  1  0  0  0
 27 28  1  0  0  0
M  CHG 1  22   1
M  CHG 1  23  -1
M  END
> <minimizedAffinity>
-8.23769

> <CNNscore>
0.1515412778

> <CNNaffinity>
6.6927247047

> <CNN_VS>
1.0142240524

> <CNNaffinity_variance>
0.3007687926

$$$$
[H]c1nc(N([H])c2c([H])c([H])c(N3C([H])([H])C([H])([H])C([H])([N+](=O)[O-])C([H])([H])C3([H])[H])c([H])c2OC([H])([H])[H])nc(N([H])c2c([H])c([H])c([H])c([H])c2S(=O)(=O)C([H])(C([H])([H])[H])C([H])([H])[H])c1Cl


 40 43  0  0  0  0  0  0  0  0999 V2000
  -89.7426   31.6521   -1.8429 C   0  0  0  0  0  0  0  0  0  0  0  0
  -89.3913   32.8746   -2.2485 N   0  0  0  0  0  0  0  0  0  0  0  0
  -88.1597   33.3622   -2.1788 C   0  0  0  0  0  0  0  0  0  0  0  0
  -87.1396   32.5938   -1.6607 C   0  0  0  0  0  0  0  0  0  0  0  0
  -85.4990   33.1937   -1.5477 Cl  0  0  0  0  0  0  0  0  0  0  0  0
  -87.4638   31.2946   -1.2196 C   0  0  0  0  0  0  0  0  0  0  0  0
  -88.7325   30.9055   -1.3357 N   0  0  0  0  0  0  0  0  0  0  0  0
  -91.0436   31.0983   -1.8941 N   0  0  0  0  0  0  0  0  0  0  0  0
  -91.8307   31.7852   -1.6536 H   0  0  0  0  0  0  0  0  0  0  0  0
  -91.5778   28.9060   -1.1244 C   0  0  0  0  0  0  0  0  0  0  0  0
  -91.9178   27.5803   -1.2995 C   0  0  0  0  0  0  0  0  0  0  0  0
  -92.0975   27.0555   -2.5533 C   0  0  0  0  0  0  0  0  0  0  0  0
  -91.9262   27.8957   -3.6323 C   0  0  0  0  0  0  0  0  0  0  0  0
  -91.5802   29.2427   -3.4473 C   0  0  0  0  0  0  0  0  0  0  0  0
  -91.3958   29.7928   -2.2094 C   0  0  0  0  0  0  0  0  0  0  0  0
  -92.4775   25.6950   -2.7123 N   0  0  0  0  0  0  0  0  0  0  0  0
  -91.7990   24.6734   -1.9684 C   0  0  0  0  0  0  0  0  0  0  0  0
  -91.7959   23.3154   -2.6082 C   0  0  0  0  0  0  0  0  0  0  0  0
  -92.9120   23.0580   -3.5603 C   0  0  0  0  0  0  0  0  0  0  0  0
  -94.0700   24.0145   -3.4376 C   0  0  0  0  0  0  0  0  0  0  0  0
  -93.5544   25.4120   -3.6477 C   0  0  0  0  0  0  0  0  0  0  0  0
  -93.4713   21.7108   -3.3702 N   0  0  0  0  0  0  0  0  0  0  0  0
  -94.5345   21.5346   -2.5240 O   0  0  0  0  0  0  0  0  0  0  0  0
  -92.9965   20.7240   -3.9613 O   0  0  0  0  0  0  0  0  0  0  0  0
  -90.9279   28.5131    1.1686 C   0  0  0  0  0  0  0  0  0  0  0  0
  -91.4161   29.3597    0.1520 O   0  0  0  0  0  0  0  0  0  0  0  0
  -86.4193   30.5205   -0.6835 N   0  0  0  0  0  0  0  0  0  0  0  0
  -85.4380   30.9219   -0.8378 H   0  0  0  0  0  0  0  0  0  0  0  0
  -86.4472   29.3183    0.0468 C   0  0  0  0  0  0  0  0  0  0  0  0
  -87.0866   28.1955   -0.4113 C   0  0  0  0  0  0  0  0  0  0  0  0
  -87.1045   27.0485    0.3745 C   0  0  0  0  0  0  0  0  0  0  0  0
  -86.4954   27.0082    1.6041 C   0  0  0  0  0  0  0  0  0  0  0  0
  -85.8601   28.1562    2.0339 C   0  0  0  0  0  0  0  0  0  0  0  0
  -85.8064   29.3323    1.2972 C   0  0  0  0  0  0  0  0  0  0  0  0
  -84.9432   30.7078    1.9244 S   0  0  0  0  0  0  0  0  0  0  0  0
  -85.1340   30.6973    3.4423 O   0  0  0  0  0  0  0  0  0  0  0  0
  -85.5514   32.0185    1.5032 O   0  0  0  0  0  0  0  0  0  0  0  0
  -83.2062   30.6654    1.6714 C   0  0  0  0  0  0  0  0  0  0  0  0
  -82.7355   29.2171    1.9026 C   0  0  0  0  0  0  0  0  0  0  0  0
  -82.8995   30.9330    0.2071 C   0  0  0  0  0  0  0  0  0  0  0  0
 25 26  1  0  0  0
 26 10  1  0  0  0
 10 11  2  0  0  0
 11 12  1  0  0  0
 12 13  2  0  0  0
 13 14  1  0  0  0
 14 15  2  0  0  0
 15  8  1  0  0  0
  8  1  1  0  0  0
  1  2  2  0  0  0
  2  3  1  0  0  0
  3  4  2  0  0  0
  4  5  1  0  0  0
  4  6  1  0  0  0
  6 27  1  0  0  0
 27 29  1  0  0  0
 29 30  2  0  0  0
 30 31  1  0  0  0
 31 32  2  0  0  0
 32 33  1  0  0  0
 33 34  2  0  0  0
 34 35  1  0  0  0
 35 36  2  0  0  0
 35 37  2  0  0  0
 35 38  1  0  0  0
 38 39  1  0  0  0
 38 40  1  0  0  0
  6  7  2  0  0  0
 12 16  1  0  0  0
 16 17  1  0  0  0
 17 18  1  0  0  0
 18 19  1  0  0  0
 19 20  1  0  0  0
 20 21  1  0  0  0
 19 22  1  0  0  0
 22 23  1  0  0  0
 22 24  2  0  0  0
 15 10  1  0  0  0
  7  1  1  0  0  0
 21 16  1  0  0  0
 34 29  1  0  0  0
  8  9  1  0  0  0
 27 28  1  0  0  0
M  CHG 1  22   1
M  CHG 1  23  -1
M  END
> <minimizedAffinity>
-8.11787

> <CNNscore>
0.1477261633

> <CNNaffinity>
6.3723359108

> <CNN_VS>
0.9413607121

> <CNNaffinity_variance>
1.0849100351

$$$$
[H]c1nc(N([H])c2c([H])c([H])c(N3C([H])([H])C([H])([H])C([H])([N+](=O)[O-])C([H])([H])C3([H])[H])c([H])c2OC([H])([H])[H])nc(N([H])c2c([H])c([H])c([H])c([H])c2S(=O)(=O)C([H])(C([H])([H])[H])C([H])([H])[H])c1Cl


 40 43  0  0  0  0  0  0  0  0999 V2000
  -88.2279   29.3232   -2.4077 C   0  0  0  0  0  0  0  0  0  0  0  0
  -88.7433   30.4375   -2.9320 N   0  0  0  0  0  0  0  0  0  0  0  0
  -88.5232   31.6582   -2.4622 C   0  0  0  0  0  0  0  0  0  0  0  0
  -87.7153   31.8404   -1.3605 C   0  0  0  0  0  0  0  0  0  0  0  0
  -87.3960   33.4313   -0.7039 Cl  0  0  0  0  0  0  0  0  0  0  0  0
  -87.1482   30.6911   -0.7730 C   0  0  0  0  0  0  0  0  0  0  0  0
  -87.4354   29.5136   -1.3257 N   0  0  0  0  0  0  0  0  0  0  0  0
  -88.4432   28.0049   -2.8744 N   0  0  0  0  0  0  0  0  0  0  0  0
  -88.1785   27.8462   -3.9010 H   0  0  0  0  0  0  0  0  0  0  0  0
  -90.1598   26.3675   -2.6372 C   0  0  0  0  0  0  0  0  0  0  0  0
  -90.7778   25.3018   -2.0159 C   0  0  0  0  0  0  0  0  0  0  0  0
  -90.2401   24.7289   -0.8923 C   0  0  0  0  0  0  0  0  0  0  0  0
  -89.0630   25.2537   -0.4038 C   0  0  0  0  0  0  0  0  0  0  0  0
  -88.4399   26.3377   -1.0403 C   0  0  0  0  0  0  0  0  0  0  0  0
  -88.9526   26.9275   -2.1619 C   0  0  0  0  0  0  0  0  0  0  0  0
  -90.8753   23.6121   -0.2841 N   0  0  0  0  0  0  0  0  0  0  0  0
  -90.0864   22.6268    0.3972 C   0  0  0  0  0  0  0  0  0  0  0  0
  -90.6887   21.2527    0.4482 C   0  0  0  0  0  0  0  0  0  0  0  0
  -92.1726   21.2035    0.3303 C   0  0  0  0  0  0  0  0  0  0  0  0
  -92.8623   22.5200    0.5792 C   0  0  0  0  0  0  0  0  0  0  0  0
  -92.3227   23.5295   -0.3969 C   0  0  0  0  0  0  0  0  0  0  0  0
  -92.7498   20.2505    1.2906 N   0  0  0  0  0  0  0  0  0  0  0  0
  -94.0741   19.9125    1.1932 O   0  0  0  0  0  0  0  0  0  0  0  0
  -92.0596   19.7448    2.1944 O   0  0  0  0  0  0  0  0  0  0  0  0
  -92.0570   26.5071   -4.1258 C   0  0  0  0  0  0  0  0  0  0  0  0
  -90.7514   26.8865   -3.7516 O   0  0  0  0  0  0  0  0  0  0  0  0
  -86.3329   30.8846    0.3564 N   0  0  0  0  0  0  0  0  0  0  0  0
  -86.8521   30.8674    1.2934 H   0  0  0  0  0  0  0  0  0  0  0  0
  -84.9426   31.0707    0.4656 C   0  0  0  0  0  0  0  0  0  0  0  0
  -84.2678   32.0118   -0.2682 C   0  0  0  0  0  0  0  0  0  0  0  0
  -82.8879   32.1228   -0.1370 C   0  0  0  0  0  0  0  0  0  0  0  0
  -82.1777   31.3115    0.7126 C   0  0  0  0  0  0  0  0  0  0  0  0
  -82.8890   30.3756    1.4368 C   0  0  0  0  0  0  0  0  0  0  0  0
  -84.2659   30.2150    1.3512 C   0  0  0  0  0  0  0  0  0  0  0  0
  -85.0618   29.0253    2.3418 S   0  0  0  0  0  0  0  0  0  0  0  0
  -85.8950   29.7907    3.3716 O   0  0  0  0  0  0  0  0  0  0  0  0
  -84.1003   28.2336    3.1867 O   0  0  0  0  0  0  0  0  0  0  0  0
  -86.2020   27.9991    1.4876 C   0  0  0  0  0  0  0  0  0  0  0  0
  -85.7686   26.5369    1.7051 C   0  0  0  0  0  0  0  0  0  0  0  0
  -87.5655   28.0917    2.1525 C   0  0  0  0  0  0  0  0  0  0  0  0
 25 26  1  0  0  0
 26 10  1  0  0  0
 10 11  2  0  0  0
 11 12  1  0  0  0
 12 13  2  0  0  0
 13 14  1  0  0  0
 14 15  2  0  0  0
 15  8  1  0  0  0
  8  1  1  0  0  0
  1  2  2  0  0  0
  2  3  1  0  0  0
  3  4  2  0  0  0
  4  5  1  0  0  0
  4  6  1  0  0  0
  6 27  1  0  0  0
 27 29  1  0  0  0
 29 30  2  0  0  0
 30 31  1  0  0  0
 31 32  2  0  0  0
 32 33  1  0  0  0
 33 34  2  0  0  0
 34 35  1  0  0  0
 35 36  2  0  0  0
 35 37  2  0  0  0
 35 38  1  0  0  0
 38 39  1  0  0  0
 38 40  1  0  0  0
  6  7  2  0  0  0
 12 16  1  0  0  0
 16 17  1  0  0  0
 17 18  1  0  0  0
 18 19  1  0  0  0
 19 20  1  0  0  0
 20 21  1  0  0  0
 19 22  1  0  0  0
 22 23  1  0  0  0
 22 24  2  0  0  0
 15 10  1  0  0  0
  7  1  1  0  0  0
 21 16  1  0  0  0
 34 29  1  0  0  0
  8  9  1  0  0  0
 27 28  1  0  0  0
M  CHG 1  22   1
M  CHG 1  23  -1
M  END
> <minimizedAffinity>
-8.63425

> <CNNscore>
0.1090976521

> <CNNaffinity>
6.7991433144

> <CNN_VS>
0.7417705655

> <CNNaffinity_variance>
0.6605750918

$$$$
[H]c1nc(N([H])c2c([H])c([H])c(N3C([H])([H])C([H])([H])C([H])([N+](=O)[O-])C([H])([H])C3([H])[H])c([H])c2OC([H])([H])[H])nc(N([H])c2c([H])c([H])c([H])c([H])c2S(=O)(=O)C([H])(C([H])([H])[H])C([H])([H])[H])c1Cl


 40 43  0  0  0  0  0  0  0  0999 V2000
  -89.0086   34.8673   -3.7496 C   0  0  0  0  0  0  0  0  0  0  0  0
  -87.9067   34.8824   -4.5033 N   0  0  0  0  0  0  0  0  0  0  0  0
  -87.7744   35.5804   -5.6233 C   0  0  0  0  0  0  0  0  0  0  0  0
  -88.8162   36.3577   -6.0813 C   0  0  0  0  0  0  0  0  0  0  0  0
  -88.6892   37.2956   -7.5539 Cl  0  0  0  0  0  0  0  0  0  0  0  0
  -90.0008   36.3731   -5.3171 C   0  0  0  0  0  0  0  0  0  0  0  0
  -90.0260   35.6348   -4.2086 N   0  0  0  0  0  0  0  0  0  0  0  0
  -89.1913   34.1326   -2.5542 N   0  0  0  0  0  0  0  0  0  0  0  0
  -90.1830   34.1784   -2.1495 H   0  0  0  0  0  0  0  0  0  0  0  0
  -88.6578   32.1175   -1.3973 C   0  0  0  0  0  0  0  0  0  0  0  0
  -87.8194   31.2790   -0.6917 C   0  0  0  0  0  0  0  0  0  0  0  0
  -86.5275   31.6424   -0.4112 C   0  0  0  0  0  0  0  0  0  0  0  0
  -86.0949   32.8730   -0.8563 C   0  0  0  0  0  0  0  0  0  0  0  0
  -86.9527   33.7209   -1.5731 C   0  0  0  0  0  0  0  0  0  0  0  0
  -88.2445   33.3842   -1.8677 C   0  0  0  0  0  0  0  0  0  0  0  0
  -85.6696   30.7522    0.2903 N   0  0  0  0  0  0  0  0  0  0  0  0
  -85.8576   29.3356    0.1677 C   0  0  0  0  0  0  0  0  0  0  0  0
  -85.3856   28.5265    1.3408 C   0  0  0  0  0  0  0  0  0  0  0  0
  -84.3209   29.1626    2.1654 C   0  0  0  0  0  0  0  0  0  0  0  0
  -83.6088   30.3065    1.4906 C   0  0  0  0  0  0  0  0  0  0  0  0
  -84.6302   31.3456    1.1163 C   0  0  0  0  0  0  0  0  0  0  0  0
  -83.2797   28.1895    2.5298 N   0  0  0  0  0  0  0  0  0  0  0  0
  -83.6342   27.0259    3.1605 O   0  0  0  0  0  0  0  0  0  0  0  0
  -82.0793   28.4022    2.2792 O   0  0  0  0  0  0  0  0  0  0  0  0
  -90.1838   30.6385   -2.5454 C   0  0  0  0  0  0  0  0  0  0  0  0
  -89.9303   31.6898   -1.6405 O   0  0  0  0  0  0  0  0  0  0  0  0
  -91.0624   37.1612   -5.7962 N   0  0  0  0  0  0  0  0  0  0  0  0
  -90.7727   37.9452   -6.4665 H   0  0  0  0  0  0  0  0  0  0  0  0
  -92.4476   37.0769   -5.5645 C   0  0  0  0  0  0  0  0  0  0  0  0
  -93.0152   37.4338   -4.3687 C   0  0  0  0  0  0  0  0  0  0  0  0
  -94.3876   37.2956   -4.1934 C   0  0  0  0  0  0  0  0  0  0  0  0
  -95.1958   36.8093   -5.1908 C   0  0  0  0  0  0  0  0  0  0  0  0
  -94.5912   36.4604   -6.3821 C   0  0  0  0  0  0  0  0  0  0  0  0
  -93.2277   36.5746   -6.6198 C   0  0  0  0  0  0  0  0  0  0  0  0
  -92.5809   36.1390   -8.1761 S   0  0  0  0  0  0  0  0  0  0  0  0
  -91.7634   37.3350   -8.6677 O   0  0  0  0  0  0  0  0  0  0  0  0
  -93.6468   35.9862   -9.2276 O   0  0  0  0  0  0  0  0  0  0  0  0
  -91.4630   34.7852   -8.1565 C   0  0  0  0  0  0  0  0  0  0  0  0
  -92.0368   33.7189   -7.2043 C   0  0  0  0  0  0  0  0  0  0  0  0
  -91.4575   34.1113   -9.5188 C   0  0  0  0  0  0  0  0  0  0  0  0
 25 26  1  0  0  0
 26 10  1  0  0  0
 10 11  2  0  0  0
 11 12  1  0  0  0
 12 13  2  0  0  0
 13 14  1  0  0  0
 14 15  2  0  0  0
 15  8  1  0  0  0
  8  1  1  0  0  0
  1  2  2  0  0  0
  2  3  1  0  0  0
  3  4  2  0  0  0
  4  5  1  0  0  0
  4  6  1  0  0  0
  6 27  1  0  0  0
 27 29  1  0  0  0
 29 30  2  0  0  0
 30 31  1  0  0  0
 31 32  2  0  0  0
 32 33  1  0  0  0
 33 34  2  0  0  0
 34 35  1  0  0  0
 35 36  2  0  0  0
 35 37  2  0  0  0
 35 38  1  0  0  0
 38 39  1  0  0  0
 38 40  1  0  0  0
  6  7  2  0  0  0
 12 16  1  0  0  0
 16 17  1  0  0  0
 17 18  1  0  0  0
 18 19  1  0  0  0
 19 20  1  0  0  0
 20 21  1  0  0  0
 19 22  1  0  0  0
 22 23  1  0  0  0
 22 24  2  0  0  0
 15 10  1  0  0  0
  7  1  1  0  0  0
 21 16  1  0  0  0
 34 29  1  0  0  0
  8  9  1  0  0  0
 27 28  1  0  0  0
M  CHG 1  22   1
M  CHG 1  23  -1
M  END
> <minimizedAffinity>
-7.83839

> <CNNscore>
0.0828565359

> <CNNaffinity>
6.5962800980

> <CNN_VS>
0.5465449095

> <CNNaffinity_variance>
0.0550336614

$$$$
[H]c1nc(N([H])c2c([H])c([H])c(N3C([H])([H])C([H])([H])C([H])([N+](=O)[O-])C([H])([H])C3([H])[H])c([H])c2OC([H])([H])[H])nc(N([H])c2c([H])c([H])c([H])c([H])c2S(=O)(=O)C([H])(C([H])([H])[H])C([H])([H])[H])c1Cl


 40 43  0  0  0  0  0  0  0  0999 V2000
  -88.2324   31.7636   -3.2049 C   0  0  0  0  0  0  0  0  0  0  0  0
  -87.5010   32.8017   -3.6168 N   0  0  0  0  0  0  0  0  0  0  0  0
  -86.5791   33.4079   -2.8808 C   0  0  0  0  0  0  0  0  0  0  0  0
  -86.3222   32.9739   -1.5982 C   0  0  0  0  0  0  0  0  0  0  0  0
  -85.1160   33.7421   -0.5887 Cl  0  0  0  0  0  0  0  0  0  0  0  0
  -87.0709   31.8790   -1.1201 C   0  0  0  0  0  0  0  0  0  0  0  0
  -87.9717   31.3450   -1.9433 N   0  0  0  0  0  0  0  0  0  0  0  0
  -89.2279   31.0947   -3.9556 N   0  0  0  0  0  0  0  0  0  0  0  0
  -89.3002   31.4066   -4.9787 H   0  0  0  0  0  0  0  0  0  0  0  0
  -91.4647   30.2776   -3.8399 C   0  0  0  0  0  0  0  0  0  0  0  0
  -92.4360   29.3769   -3.4539 C   0  0  0  0  0  0  0  0  0  0  0  0
  -92.1160   28.2593   -2.7270 C   0  0  0  0  0  0  0  0  0  0  0  0
  -90.7925   28.0664   -2.3940 C   0  0  0  0  0  0  0  0  0  0  0  0
  -89.8098   28.9864   -2.7895 C   0  0  0  0  0  0  0  0  0  0  0  0
  -90.0999   30.1080   -3.5152 C   0  0  0  0  0  0  0  0  0  0  0  0
  -93.1263   27.3272   -2.3648 N   0  0  0  0  0  0  0  0  0  0  0  0
  -92.8053   26.2268   -1.5026 C   0  0  0  0  0  0  0  0  0  0  0  0
  -93.6737   25.0135   -1.6684 C   0  0  0  0  0  0  0  0  0  0  0  0
  -95.0297   25.2730   -2.2271 C   0  0  0  0  0  0  0  0  0  0  0  0
  -95.4652   26.7143   -2.1643 C   0  0  0  0  0  0  0  0  0  0  0  0
  -94.4570   27.5466   -2.9087 C   0  0  0  0  0  0  0  0  0  0  0  0
  -96.0560   24.5031   -1.5077 N   0  0  0  0  0  0  0  0  0  0  0  0
  -96.4436   24.9006   -0.2550 O   0  0  0  0  0  0  0  0  0  0  0  0
  -96.5799   23.4935   -2.0129 O   0  0  0  0  0  0  0  0  0  0  0  0
  -92.8467   31.2604   -5.5600 C   0  0  0  0  0  0  0  0  0  0  0  0
  -91.8559   31.3668   -4.5623 O   0  0  0  0  0  0  0  0  0  0  0  0
  -86.8095   31.4483    0.1929 N   0  0  0  0  0  0  0  0  0  0  0  0
  -87.6161   31.5950    0.8826 H   0  0  0  0  0  0  0  0  0  0  0  0
  -85.6742   30.8310    0.7490 C   0  0  0  0  0  0  0  0  0  0  0  0
  -84.5976   31.5473    1.2044 C   0  0  0  0  0  0  0  0  0  0  0  0
  -83.4925   30.8742    1.7135 C   0  0  0  0  0  0  0  0  0  0  0  0
  -83.4489   29.5035    1.7737 C   0  0  0  0  0  0  0  0  0  0  0  0
  -84.5503   28.8138    1.3074 C   0  0  0  0  0  0  0  0  0  0  0  0
  -85.6835   29.4264    0.7882 C   0  0  0  0  0  0  0  0  0  0  0  0
  -87.0294   28.4548    0.2641 S   0  0  0  0  0  0  0  0  0  0  0  0
  -86.9470   28.3680   -1.2611 O   0  0  0  0  0  0  0  0  0  0  0  0
  -88.3573   29.1203    0.5065 O   0  0  0  0  0  0  0  0  0  0  0  0
  -87.0022   26.7926    0.8289 C   0  0  0  0  0  0  0  0  0  0  0  0
  -87.6662   26.7602    2.2185 C   0  0  0  0  0  0  0  0  0  0  0  0
  -87.9123   25.9445   -0.0443 C   0  0  0  0  0  0  0  0  0  0  0  0
 25 26  1  0  0  0
 26 10  1  0  0  0
 10 11  2  0  0  0
 11 12  1  0  0  0
 12 13  2  0  0  0
 13 14  1  0  0  0
 14 15  2  0  0  0
 15  8  1  0  0  0
  8  1  1  0  0  0
  1  2  2  0  0  0
  2  3  1  0  0  0
  3  4  2  0  0  0
  4  5  1  0  0  0
  4  6  1  0  0  0
  6 27  1  0  0  0
 27 29  1  0  0  0
 29 30  2  0  0  0
 30 31  1  0  0  0
 31 32  2  0  0  0
 32 33  1  0  0  0
 33 34  2  0  0  0
 34 35  1  0  0  0
 35 36  2  0  0  0
 35 37  2  0  0  0
 35 38  1  0  0  0
 38 39  1  0  0  0
 38 40  1  0  0  0
  6  7  2  0  0  0
 12 16  1  0  0  0
 16 17  1  0  0  0
 17 18  1  0  0  0
 18 19  1  0  0  0
 19 20  1  0  0  0
 20 21  1  0  0  0
 19 22  1  0  0  0
 22 23  1  0  0  0
 22 24  2  0  0  0
 15 10  1  0  0  0
  7  1  1  0  0  0
 21 16  1  0  0  0
 34 29  1  0  0  0
  8  9  1  0  0  0
 27 28  1  0  0  0
M  CHG 1  22   1
M  CHG 1  23  -1
M  END
> <minimizedAffinity>
-7.40731

> <CNNscore>
0.0813987106

> <CNNaffinity>
6.4663109779

> <CNN_VS>
0.5263493657

> <CNNaffinity_variance>
0.4211364686

$$$$
[H]c1nc(N([H])c2c([H])c([H])c(N3C([H])([H])C([H])([H])C([H])([N+](=O)[O-])C([H])([H])C3([H])[H])c([H])c2OC([H])([H])[H])nc(N([H])c2c([H])c([H])c([H])c([H])c2S(=O)(=O)C([H])(C([H])([H])[H])C([H])([H])[H])c1Cl


 40 43  0  0  0  0  0  0  0  0999 V2000
  -85.8317   29.2955    1.2905 C   0  0  0  0  0  0  0  0  0  0  0  0
  -84.5989   29.8077    1.2955 N   0  0  0  0  0  0  0  0  0  0  0  0
  -84.2621   30.9559    0.7232 C   0  0  0  0  0  0  0  0  0  0  0  0
  -85.2132   31.7072    0.0670 C   0  0  0  0  0  0  0  0  0  0  0  0
  -84.8168   33.2279   -0.7038 Cl  0  0  0  0  0  0  0  0  0  0  0  0
  -86.5304   31.2054    0.0363 C   0  0  0  0  0  0  0  0  0  0  0  0
  -86.7586   30.0419    0.6434 N   0  0  0  0  0  0  0  0  0  0  0  0
  -86.2294   28.0735    1.8826 N   0  0  0  0  0  0  0  0  0  0  0  0
  -85.7535   27.8552    2.8181 H   0  0  0  0  0  0  0  0  0  0  0  0
  -88.3676   27.0382    2.0834 C   0  0  0  0  0  0  0  0  0  0  0  0
  -89.3559   26.1533    1.7042 C   0  0  0  0  0  0  0  0  0  0  0  0
  -89.1917   25.3315    0.6191 C   0  0  0  0  0  0  0  0  0  0  0  0
  -88.0064   25.4180   -0.0790 C   0  0  0  0  0  0  0  0  0  0  0  0
  -87.0054   26.3199    0.3122 C   0  0  0  0  0  0  0  0  0  0  0  0
  -87.1424   27.1514    1.3886 C   0  0  0  0  0  0  0  0  0  0  0  0
  -90.2335   24.4482    0.2257 N   0  0  0  0  0  0  0  0  0  0  0  0
  -91.4326   24.3662    1.0085 C   0  0  0  0  0  0  0  0  0  0  0  0
  -92.1595   23.0554    0.9248 C   0  0  0  0  0  0  0  0  0  0  0  0
  -91.9129   22.2691   -0.3159 C   0  0  0  0  0  0  0  0  0  0  0  0
  -91.3120   23.0618   -1.4480 C   0  0  0  0  0  0  0  0  0  0  0  0
  -90.0138   23.6557   -0.9737 C   0  0  0  0  0  0  0  0  0  0  0  0
  -93.1625   21.6937   -0.8365 N   0  0  0  0  0  0  0  0  0  0  0  0
  -93.2159   21.2586   -2.1347 O   0  0  0  0  0  0  0  0  0  0  0  0
  -94.1766   21.5956   -0.1217 O   0  0  0  0  0  0  0  0  0  0  0  0
  -89.7494   27.6437    3.9699 C   0  0  0  0  0  0  0  0  0  0  0  0
  -88.6005   27.8258    3.1729 O   0  0  0  0  0  0  0  0  0  0  0  0
  -87.4929   31.9732   -0.6433 N   0  0  0  0  0  0  0  0  0  0  0  0
  -88.0719   32.6229   -0.0184 H   0  0  0  0  0  0  0  0  0  0  0  0
  -87.8065   32.0522   -2.0125 C   0  0  0  0  0  0  0  0  0  0  0  0
  -87.0972   32.8375   -2.8842 C   0  0  0  0  0  0  0  0  0  0  0  0
  -87.4793   32.8961   -4.2199 C   0  0  0  0  0  0  0  0  0  0  0  0
  -88.5536   32.1847   -4.6936 C   0  0  0  0  0  0  0  0  0  0  0  0
  -89.2446   31.4037   -3.7887 C   0  0  0  0  0  0  0  0  0  0  0  0
  -88.9137   31.3022   -2.4437 C   0  0  0  0  0  0  0  0  0  0  0  0
  -89.8354   30.2553   -1.4023 S   0  0  0  0  0  0  0  0  0  0  0  0
  -91.2609   30.2206   -1.9566 O   0  0  0  0  0  0  0  0  0  0  0  0
  -90.0107   30.8186   -0.0177 O   0  0  0  0  0  0  0  0  0  0  0  0
  -89.3018   28.5826   -1.3802 C   0  0  0  0  0  0  0  0  0  0  0  0
  -90.4516   27.7179   -1.9308 C   0  0  0  0  0  0  0  0  0  0  0  0
  -88.1751   28.3957   -2.3830 C   0  0  0  0  0  0  0  0  0  0  0  0
 25 26  1  0  0  0
 26 10  1  0  0  0
 10 11  2  0  0  0
 11 12  1  0  0  0
 12 13  2  0  0  0
 13 14  1  0  0  0
 14 15  2  0  0  0
 15  8  1  0  0  0
  8  1  1  0  0  0
  1  2  2  0  0  0
  2  3  1  0  0  0
  3  4  2  0  0  0
  4  5  1  0  0  0
  4  6  1  0  0  0
  6 27  1  0  0  0
 27 29  1  0  0  0
 29 30  2  0  0  0
 30 31  1  0  0  0
 31 32  2  0  0  0
 32 33  1  0  0  0
 33 34  2  0  0  0
 34 35  1  0  0  0
 35 36  2  0  0  0
 35 37  2  0  0  0
 35 38  1  0  0  0
 38 39  1  0  0  0
 38 40  1  0  0  0
  6  7  2  0  0  0
 12 16  1  0  0  0
 16 17  1  0  0  0
 17 18  1  0  0  0
 18 19  1  0  0  0
 19 20  1  0  0  0
 20 21  1  0  0  0
 19 22  1  0  0  0
 22 23  1  0  0  0
 22 24  2  0  0  0
 15 10  1  0  0  0
  7  1  1  0  0  0
 21 16  1  0  0  0
 34 29  1  0  0  0
  8  9  1  0  0  0
 27 28  1  0  0  0
M  CHG 1  22   1
M  CHG 1  23  -1
M  END
> <minimizedAffinity>
-7.73642

> <CNNscore>
0.0805635378

> <CNNaffinity>
6.9443869591

> <CNN_VS>
0.5594643950

> <CNNaffinity_variance>
0.3054219186

$$$$
[H]c1nc(N([H])c2c([H])c([H])c(N3C([H])([H])C([H])([H])C([H])([N+](=O)[O-])C([H])([H])C3([H])[H])c([H])c2OC([H])([H])[H])nc(N([H])c2c([H])c([H])c([H])c([H])c2S(=O)(=O)C([H])(C([H])([H])[H])C([H])([H])[H])c1Cl


 40 43  0  0  0  0  0  0  0  0999 V2000
  -88.1754   30.6183   -2.5442 C   0  0  0  0  0  0  0  0  0  0  0  0
  -88.2598   31.9010   -2.9046 N   0  0  0  0  0  0  0  0  0  0  0  0
  -87.7023   32.9044   -2.2401 C   0  0  0  0  0  0  0  0  0  0  0  0
  -86.9769   32.6573   -1.0945 C   0  0  0  0  0  0  0  0  0  0  0  0
  -86.2234   33.9482   -0.1835 Cl  0  0  0  0  0  0  0  0  0  0  0  0
  -86.8603   31.3162   -0.6754 C   0  0  0  0  0  0  0  0  0  0  0  0
  -87.4602   30.3867   -1.4173 N   0  0  0  0  0  0  0  0  0  0  0  0
  -88.7600   29.5218   -3.2208 N   0  0  0  0  0  0  0  0  0  0  0  0
  -88.6831   29.5644   -4.2893 H   0  0  0  0  0  0  0  0  0  0  0  0
  -90.8220   28.4564   -2.6759 C   0  0  0  0  0  0  0  0  0  0  0  0
  -91.5884   27.4406   -2.1423 C   0  0  0  0  0  0  0  0  0  0  0  0
  -91.0050   26.3428   -1.5643 C   0  0  0  0  0  0  0  0  0  0  0  0
  -89.6281   26.2884   -1.5330 C   0  0  0  0  0  0  0  0  0  0  0  0
  -88.8547   27.3248   -2.0772 C   0  0  0  0  0  0  0  0  0  0  0  0
  -89.4092   28.4299   -2.6602 C   0  0  0  0  0  0  0  0  0  0  0  0
  -91.8111   25.2923   -1.0474 N   0  0  0  0  0  0  0  0  0  0  0  0
  -93.1991   25.2183   -1.4015 C   0  0  0  0  0  0  0  0  0  0  0  0
  -94.0773   24.5329   -0.3953 C   0  0  0  0  0  0  0  0  0  0  0  0
  -93.3859   23.5585    0.4940 C   0  0  0  0  0  0  0  0  0  0  0  0
  -92.0322   23.1158    0.0015 C   0  0  0  0  0  0  0  0  0  0  0  0
  -91.1661   24.3347   -0.1632 C   0  0  0  0  0  0  0  0  0  0  0  0
  -94.1826   22.3332    0.6594 N   0  0  0  0  0  0  0  0  0  0  0  0
  -95.5484   22.3990    0.5709 O   0  0  0  0  0  0  0  0  0  0  0  0
  -93.6414   21.2347    0.8815 O   0  0  0  0  0  0  0  0  0  0  0  0
  -92.6977   29.3476   -3.9095 C   0  0  0  0  0  0  0  0  0  0  0  0
  -91.4707   29.5179   -3.2359 O   0  0  0  0  0  0  0  0  0  0  0  0
  -86.1267   31.0735    0.4996 N   0  0  0  0  0  0  0  0  0  0  0  0
  -86.7210   30.9466    1.3820 H   0  0  0  0  0  0  0  0  0  0  0  0
  -84.7415   30.9421    0.7080 C   0  0  0  0  0  0  0  0  0  0  0  0
  -83.8391   31.8675    0.2510 C   0  0  0  0  0  0  0  0  0  0  0  0
  -82.4802   31.6616    0.4621 C   0  0  0  0  0  0  0  0  0  0  0  0
  -82.0137   30.5508    1.1200 C   0  0  0  0  0  0  0  0  0  0  0  0
  -82.9500   29.6400    1.5674 C   0  0  0  0  0  0  0  0  0  0  0  0
  -84.3193   29.7876    1.3887 C   0  0  0  0  0  0  0  0  0  0  0  0
  -85.4098   28.5918    2.0298 S   0  0  0  0  0  0  0  0  0  0  0  0
  -86.2138   29.2733    3.1388 O   0  0  0  0  0  0  0  0  0  0  0  0
  -84.6960   27.4780    2.7476 O   0  0  0  0  0  0  0  0  0  0  0  0
  -86.6021   27.9943    0.8878 C   0  0  0  0  0  0  0  0  0  0  0  0
  -86.4968   26.4577    0.8632 C   0  0  0  0  0  0  0  0  0  0  0  0
  -87.9985   28.2687    1.4212 C   0  0  0  0  0  0  0  0  0  0  0  0
 25 26  1  0  0  0
 26 10  1  0  0  0
 10 11  2  0  0  0
 11 12  1  0  0  0
 12 13  2  0  0  0
 13 14  1  0  0  0
 14 15  2  0  0  0
 15  8  1  0  0  0
  8  1  1  0  0  0
  1  2  2  0  0  0
  2  3  1  0  0  0
  3  4  2  0  0  0
  4  5  1  0  0  0
  4  6  1  0  0  0
  6 27  1  0  0  0
 27 29  1  0  0  0
 29 30  2  0  0  0
 30 31  1  0  0  0
 31 32  2  0  0  0
 32 33  1  0  0  0
 33 34  2  0  0  0
 34 35  1  0  0  0
 35 36  2  0  0  0
 35 37  2  0  0  0
 35 38  1  0  0  0
 38 39  1  0  0  0
 38 40  1  0  0  0
  6  7  2  0  0  0
 12 16  1  0  0  0
 16 17  1  0  0  0
 17 18  1  0  0  0
 18 19  1  0  0  0
 19 20  1  0  0  0
 20 21  1  0  0  0
 19 22  1  0  0  0
 22 23  1  0  0  0
 22 24  2  0  0  0
 15 10  1  0  0  0
  7  1  1  0  0  0
 21 16  1  0  0  0
 34 29  1  0  0  0
  8  9  1  0  0  0
 27 28  1  0  0  0
M  CHG 1  22   1
M  CHG 1  23  -1
M  END
> <minimizedAffinity>
-7.61443

> <CNNscore>
0.0745465681

> <CNNaffinity>
6.7724113464

> <CNN_VS>
0.5048600435

> <CNNaffinity_variance>
0.4050664008

$$$$
[H]OC(=O)[C@]1([H])C([H])([H])C([H])([H])[C@]([H])(c2nc(-c3c([H])c([H])c(C(=O)N([H])c4nc([H])c([H])c(C(F)(F)F)c4[H])c([H])c3[H])c3c(N([H])[H])nc([H])c([H])n32)C([H])([H])C1([H])[H]


 42 46  0  0  0  0  0  0  0  0999 V2000
  -91.2568   30.5258   -3.9374 N   0  0  0  0  0  0  0  0  0  0  0  0
  -91.8636   29.3032   -3.6221 C   0  0  0  0  0  0  0  0  0  0  0  0
  -92.9295   28.9375   -4.3883 N   0  0  0  0  0  0  0  0  0  0  0  0
  -93.5351   27.7623   -4.2054 C   0  0  0  0  0  0  0  0  0  0  0  0
  -93.0672   26.8805   -3.2179 C   0  0  0  0  0  0  0  0  0  0  0  0
  -92.0309   27.2316   -2.4748 N   0  0  0  0  0  0  0  0  0  0  0  0
  -91.4022   26.5478   -1.4659 C   0  0  0  0  0  0  0  0  0  0  0  0
  -90.4288   27.3266   -1.0423 N   0  0  0  0  0  0  0  0  0  0  0  0
  -90.3860   28.4824   -1.7194 C   0  0  0  0  0  0  0  0  0  0  0  0
  -91.4179   28.4349   -2.6554 C   0  0  0  0  0  0  0  0  0  0  0  0
  -91.7488   31.4308   -3.7344 H   0  0  0  0  0  0  0  0  0  0  0  0
  -90.3051   30.6178   -4.3842 H   0  0  0  0  0  0  0  0  0  0  0  0
  -89.4721   29.6081   -1.5764 C   0  0  0  0  0  0  0  0  0  0  0  0
  -89.7722   30.6364   -0.6980 C   0  0  0  0  0  0  0  0  0  0  0  0
  -89.0079   31.7646   -0.5985 C   0  0  0  0  0  0  0  0  0  0  0  0
  -87.8805   31.9458   -1.3722 C   0  0  0  0  0  0  0  0  0  0  0  0
  -87.5678   30.9121   -2.2576 C   0  0  0  0  0  0  0  0  0  0  0  0
  -88.3426   29.7705   -2.3595 C   0  0  0  0  0  0  0  0  0  0  0  0
  -87.1241   33.1772   -1.3958 C   0  0  0  0  0  0  0  0  0  0  0  0
  -87.7671   34.1576   -2.0228 O   0  0  0  0  0  0  0  0  0  0  0  0
  -85.9167   33.5068   -0.8854 N   0  0  0  0  0  0  0  0  0  0  0  0
  -85.5869   34.5849   -1.0070 H   0  0  0  0  0  0  0  0  0  0  0  0
  -84.8957   32.7176   -0.3155 C   0  0  0  0  0  0  0  0  0  0  0  0
  -85.0346   31.6983    0.5593 C   0  0  0  0  0  0  0  0  0  0  0  0
  -83.9899   31.0179    1.1700 C   0  0  0  0  0  0  0  0  0  0  0  0
  -82.7110   31.4101    0.8603 C   0  0  0  0  0  0  0  0  0  0  0  0
  -82.5612   32.4517   -0.0381 C   0  0  0  0  0  0  0  0  0  0  0  0
  -83.5903   33.0613   -0.5897 N   0  0  0  0  0  0  0  0  0  0  0  0
  -84.2572   29.8688    2.0166 C   0  0  0  0  0  0  0  0  0  0  0  0
  -84.9356   30.1007    3.1769 F   0  0  0  0  0  0  0  0  0  0  0  0
  -82.9697   29.3712    2.3519 F   0  0  0  0  0  0  0  0  0  0  0  0
  -84.8652   28.7994    1.3637 F   0  0  0  0  0  0  0  0  0  0  0  0
  -91.8259   25.1828   -1.0598 C   0  0  0  0  0  0  0  0  0  0  0  0
  -91.4957   24.9263    0.4154 C   0  0  0  0  0  0  0  0  0  0  0  0
  -92.2333   23.6438    0.8021 C   0  0  0  0  0  0  0  0  0  0  0  0
  -92.8245   22.9272   -0.3721 C   0  0  0  0  0  0  0  0  0  0  0  0
  -91.9256   22.7970   -1.5621 C   0  0  0  0  0  0  0  0  0  0  0  0
  -91.2104   24.0847   -1.8374 C   0  0  0  0  0  0  0  0  0  0  0  0
  -93.1372   21.5357    0.0913 C   0  0  0  0  0  0  0  0  0  0  0  0
  -92.4762   20.4492   -0.4760 O   0  0  0  0  0  0  0  0  0  0  0  0
  -93.9739   21.3136    0.9700 O   0  0  0  0  0  0  0  0  0  0  0  0
  -91.4621   20.3505   -0.3675 H   0  0  0  0  0  0  0  0  0  0  0  0
  1  2  1  0  0  0
  2  3  2  0  0  0
  3  4  1  0  0  0
  4  5  2  0  0  0
  5  6  1  0  0  0
  6  7  1  0  0  0
  7  8  2  0  0  0
  8  9  1  0  0  0
  9 13  1  0  0  0
 13 14  2  0  0  0
 14 15  1  0  0  0
 15 16  2  0  0  0
 16 17  1  0  0  0
 17 18  2  0  0  0
 16 19  1  0  0  0
 19 20  2  0  0  0
 19 21  1  0  0  0
 21 23  1  0  0  0
 23 24  2  0  0  0
 24 25  1  0  0  0
 25 26  2  0  0  0
 26 27  1  0  0  0
 27 28  2  0  0  0
 25 29  1  0  0  0
 29 30  1  0  0  0
 29 31  1  0  0  0
 29 32  1  0  0  0
  9 10  2  0  0  0
  7 33  1  0  0  0
 33 34  1  0  0  0
 34 35  1  0  0  0
 35 36  1  0  0  0
 36 37  1  0  0  0
 37 38  1  0  0  0
 36 39  1  0  0  0
 39 40  1  0  0  0
 39 41  2  0  0  0
 10  2  1  0  0  0
 38 33  1  0  0  0
 10  6  1  0  0  0
 18 13  1  0  0  0
 28 23  1  0  0  0
  1 11  1  0  0  0
  1 12  1  0  0  0
 21 22  1  0  0  0
 40 42  1  0  0  0
M  END
> <minimizedAffinity>
-9.96409

> <CNNscore>
0.1197100282

> <CNNaffinity>
6.8645730019

> <CNN_VS>
0.8217582107

> <CNNaffinity_variance>
0.0434107706

$$$$
[H]OC(=O)[C@]1([H])C([H])([H])C([H])([H])[C@]([H])(c2nc(-c3c([H])c([H])c(C(=O)N([H])c4nc([H])c([H])c(C(F)(F)F)c4[H])c([H])c3[H])c3c(N([H])[H])nc([H])c([H])n32)C([H])([H])C1([H])[H]


 42 46  0  0  0  0  0  0  0  0999 V2000
  -86.3611   29.5155    0.6210 N   0  0  0  0  0  0  0  0  0  0  0  0
  -86.2769   30.8291    0.1418 C   0  0  0  0  0  0  0  0  0  0  0  0
  -85.1878   31.5500    0.5305 N   0  0  0  0  0  0  0  0  0  0  0  0
  -84.9872   32.7889    0.0766 C   0  0  0  0  0  0  0  0  0  0  0  0
  -85.9017   33.3612   -0.8221 C   0  0  0  0  0  0  0  0  0  0  0  0
  -86.9581   32.6627   -1.2034 N   0  0  0  0  0  0  0  0  0  0  0  0
  -87.9725   33.0028   -2.0614 C   0  0  0  0  0  0  0  0  0  0  0  0
  -88.7825   31.9659   -2.1056 N   0  0  0  0  0  0  0  0  0  0  0  0
  -88.3531   30.9656   -1.3238 C   0  0  0  0  0  0  0  0  0  0  0  0
  -87.1678   31.4012   -0.7336 C   0  0  0  0  0  0  0  0  0  0  0  0
  -86.5665   29.3319    1.6342 H   0  0  0  0  0  0  0  0  0  0  0  0
  -86.2269   28.6562    0.0230 H   0  0  0  0  0  0  0  0  0  0  0  0
  -88.9406   29.6529   -1.0903 C   0  0  0  0  0  0  0  0  0  0  0  0
  -88.4518   28.5456   -1.7641 C   0  0  0  0  0  0  0  0  0  0  0  0
  -89.0287   27.3110   -1.6650 C   0  0  0  0  0  0  0  0  0  0  0  0
  -90.1404   27.0926   -0.8782 C   0  0  0  0  0  0  0  0  0  0  0  0
  -90.6376   28.2024   -0.1916 C   0  0  0  0  0  0  0  0  0  0  0  0
  -90.0543   29.4528   -0.2934 C   0  0  0  0  0  0  0  0  0  0  0  0
  -90.8595   25.8391   -0.8518 C   0  0  0  0  0  0  0  0  0  0  0  0
  -91.3377   25.5013   -2.0455 O   0  0  0  0  0  0  0  0  0  0  0  0
  -91.1067   24.9592    0.1440 N   0  0  0  0  0  0  0  0  0  0  0  0
  -91.6601   24.0101   -0.1375 H   0  0  0  0  0  0  0  0  0  0  0  0
  -90.9106   25.0459    1.5383 C   0  0  0  0  0  0  0  0  0  0  0  0
  -90.5816   26.1410    2.2565 C   0  0  0  0  0  0  0  0  0  0  0  0
  -90.3000   26.1534    3.6160 C   0  0  0  0  0  0  0  0  0  0  0  0
  -90.3617   24.9571    4.2871 C   0  0  0  0  0  0  0  0  0  0  0  0
  -90.7017   23.8314    3.5578 C   0  0  0  0  0  0  0  0  0  0  0  0
  -90.9611   23.8783    2.2674 N   0  0  0  0  0  0  0  0  0  0  0  0
  -90.0578   27.4088    4.3044 C   0  0  0  0  0  0  0  0  0  0  0  0
  -90.1165   27.3875    5.6669 F   0  0  0  0  0  0  0  0  0  0  0  0
  -91.0828   28.2721    3.8336 F   0  0  0  0  0  0  0  0  0  0  0  0
  -88.8828   28.0557    3.9297 F   0  0  0  0  0  0  0  0  0  0  0  0
  -88.0019   34.3127   -2.7622 C   0  0  0  0  0  0  0  0  0  0  0  0
  -89.4315   34.6731   -3.1835 C   0  0  0  0  0  0  0  0  0  0  0  0
  -89.3949   36.1416   -3.6084 C   0  0  0  0  0  0  0  0  0  0  0  0
  -88.0057   36.6896   -3.7151 C   0  0  0  0  0  0  0  0  0  0  0  0
  -87.0223   35.8095   -4.4219 C   0  0  0  0  0  0  0  0  0  0  0  0
  -87.1622   34.3850   -3.9783 C   0  0  0  0  0  0  0  0  0  0  0  0
  -88.1073   37.9559   -4.5119 C   0  0  0  0  0  0  0  0  0  0  0  0
  -89.0872   38.0831   -5.4932 O   0  0  0  0  0  0  0  0  0  0  0  0
  -87.3407   38.9048   -4.3288 O   0  0  0  0  0  0  0  0  0  0  0  0
  -90.0786   38.0636   -5.2352 H   0  0  0  0  0  0  0  0  0  0  0  0
  1  2  1  0  0  0
  2  3  2  0  0  0
  3  4  1  0  0  0
  4  5  2  0  0  0
  5  6  1  0  0  0
  6  7  1  0  0  0
  7  8  2  0  0  0
  8  9  1  0  0  0
  9 13  1  0  0  0
 13 14  2  0  0  0
 14 15  1  0  0  0
 15 16  2  0  0  0
 16 17  1  0  0  0
 17 18  2  0  0  0
 16 19  1  0  0  0
 19 20  2  0  0  0
 19 21  1  0  0  0
 21 23  1  0  0  0
 23 24  2  0  0  0
 24 25  1  0  0  0
 25 26  2  0  0  0
 26 27  1  0  0  0
 27 28  2  0  0  0
 25 29  1  0  0  0
 29 30  1  0  0  0
 29 31  1  0  0  0
 29 32  1  0  0  0
  9 10  2  0  0  0
  7 33  1  0  0  0
 33 34  1  0  0  0
 34 35  1  0  0  0
 35 36  1  0  0  0
 36 37  1  0  0  0
 37 38  1  0  0  0
 36 39  1  0  0  0
 39 40  1  0  0  0
 39 41  2  0  0  0
 10  2  1  0  0  0
 38 33  1  0  0  0
 10  6  1  0  0  0
 18 13  1  0  0  0
 28 23  1  0  0  0
  1 11  1  0  0  0
  1 12  1  0  0  0
 21 22  1  0  0  0
 40 42  1  0  0  0
M  END
> <minimizedAffinity>
-9.38571

> <CNNscore>
0.1038193926

> <CNNaffinity>
6.8814325333

> <CNN_VS>
0.7144261599

> <CNNaffinity_variance>
0.3024947643

$$$$
[H]OC(=O)[C@]1([H])C([H])([H])C([H])([H])[C@]([H])(c2nc(-c3c([H])c([H])c(C(=O)N([H])c4nc([H])c([H])c(C(F)(F)F)c4[H])c([H])c3[H])c3c(N([H])[H])nc([H])c([H])n32)C([H])([H])C1([H])[H]


 42 46  0  0  0  0  0  0  0  0999 V2000
  -91.9174   30.6745   -3.1422 N   0  0  0  0  0  0  0  0  0  0  0  0
  -92.1926   29.3702   -2.7117 C   0  0  0  0  0  0  0  0  0  0  0  0
  -93.3847   28.8390   -3.1033 N   0  0  0  0  0  0  0  0  0  0  0  0
  -93.7101   27.5818   -2.7954 C   0  0  0  0  0  0  0  0  0  0  0  0
  -92.8124   26.7855   -2.0661 C   0  0  0  0  0  0  0  0  0  0  0  0
  -91.6533   27.2976   -1.6873 N   0  0  0  0  0  0  0  0  0  0  0  0
  -90.6287   26.7227   -0.9800 C   0  0  0  0  0  0  0  0  0  0  0  0
  -89.6991   27.6470   -0.8584 N   0  0  0  0  0  0  0  0  0  0  0  0
  -90.0593   28.7953   -1.4483 C   0  0  0  0  0  0  0  0  0  0  0  0
  -91.3245   28.5838   -1.9939 C   0  0  0  0  0  0  0  0  0  0  0  0
  -92.4441   31.4888   -2.7399 H   0  0  0  0  0  0  0  0  0  0  0  0
  -91.1945   30.9184   -3.8716 H   0  0  0  0  0  0  0  0  0  0  0  0
  -89.3310   30.0529   -1.5530 C   0  0  0  0  0  0  0  0  0  0  0  0
  -88.4469   30.2559   -2.5999 C   0  0  0  0  0  0  0  0  0  0  0  0
  -87.6604   31.3694   -2.6925 C   0  0  0  0  0  0  0  0  0  0  0  0
  -87.7037   32.3672   -1.7411 C   0  0  0  0  0  0  0  0  0  0  0  0
  -88.5956   32.1730   -0.6842 C   0  0  0  0  0  0  0  0  0  0  0  0
  -89.3906   31.0448   -0.5898 C   0  0  0  0  0  0  0  0  0  0  0  0
  -86.7955   33.4916   -1.7291 C   0  0  0  0  0  0  0  0  0  0  0  0
  -87.2307   34.5053   -2.4712 O   0  0  0  0  0  0  0  0  0  0  0  0
  -85.6207   33.6983   -1.0936 N   0  0  0  0  0  0  0  0  0  0  0  0
  -85.1416   34.7180   -1.2229 H   0  0  0  0  0  0  0  0  0  0  0  0
  -84.7817   32.8237   -0.3717 C   0  0  0  0  0  0  0  0  0  0  0  0
  -85.1294   31.9942    0.6356 C   0  0  0  0  0  0  0  0  0  0  0  0
  -84.2466   31.2265    1.3831 C   0  0  0  0  0  0  0  0  0  0  0  0
  -82.9115   31.3150    1.0745 C   0  0  0  0  0  0  0  0  0  0  0  0
  -82.5485   32.1605    0.0411 C   0  0  0  0  0  0  0  0  0  0  0  0
  -83.4307   32.8653   -0.6369 N   0  0  0  0  0  0  0  0  0  0  0  0
  -84.7452   30.2915    2.3759 C   0  0  0  0  0  0  0  0  0  0  0  0
  -83.9322   29.2466    2.7037 F   0  0  0  0  0  0  0  0  0  0  0  0
  -85.9298   29.7624    1.7977 F   0  0  0  0  0  0  0  0  0  0  0  0
  -85.1891   30.8839    3.5555 F   0  0  0  0  0  0  0  0  0  0  0  0
  -90.6817   25.3071   -0.5317 C   0  0  0  0  0  0  0  0  0  0  0  0
  -90.1855   25.1742    0.9130 C   0  0  0  0  0  0  0  0  0  0  0  0
  -90.5635   23.7638    1.3672 C   0  0  0  0  0  0  0  0  0  0  0  0
  -91.0569   22.8975    0.2501 C   0  0  0  0  0  0  0  0  0  0  0  0
  -90.2489   22.9535   -1.0089 C   0  0  0  0  0  0  0  0  0  0  0  0
  -89.8851   24.3665   -1.3502 C   0  0  0  0  0  0  0  0  0  0  0  0
  -90.9917   21.4840    0.7465 C   0  0  0  0  0  0  0  0  0  0  0  0
  -90.1022   20.5836    0.1655 O   0  0  0  0  0  0  0  0  0  0  0  0
  -91.7103   21.0815    1.6647 O   0  0  0  0  0  0  0  0  0  0  0  0
  -89.0924   20.7444    0.2300 H   0  0  0  0  0  0  0  0  0  0  0  0
  1  2  1  0  0  0
  2  3  2  0  0  0
  3  4  1  0  0  0
  4  5  2  0  0  0
  5  6  1  0  0  0
  6  7  1  0  0  0
  7  8  2  0  0  0
  8  9  1  0  0  0
  9 13  1  0  0  0
 13 14  2  0  0  0
 14 15  1  0  0  0
 15 16  2  0  0  0
 16 17  1  0  0  0
 17 18  2  0  0  0
 16 19  1  0  0  0
 19 20  2  0  0  0
 19 21  1  0  0  0
 21 23  1  0  0  0
 23 24  2  0  0  0
 24 25  1  0  0  0
 25 26  2  0  0  0
 26 27  1  0  0  0
 27 28  2  0  0  0
 25 29  1  0  0  0
 29 30  1  0  0  0
 29 31  1  0  0  0
 29 32  1  0  0  0
  9 10  2  0  0  0
  7 33  1  0  0  0
 33 34  1  0  0  0
 34 35  1  0  0  0
 35 36  1  0  0  0
 36 37  1  0  0  0
 37 38  1  0  0  0
 36 39  1  0  0  0
 39 40  1  0  0  0
 39 41  2  0  0  0
 10  2  1  0  0  0
 38 33  1  0  0  0
 10  6  1  0  0  0
 18 13  1  0  0  0
 28 23  1  0  0  0
  1 11  1  0  0  0
  1 12  1  0  0  0
 21 22  1  0  0  0
 40 42  1  0  0  0
M  END
> <minimizedAffinity>
-10.46430

> <CNNscore>
0.0943942964

> <CNNaffinity>
6.8931798935

> <CNN_VS>
0.6506768465

> <CNNaffinity_variance>
0.1087882146

$$$$
[H]OC(=O)[C@]1([H])C([H])([H])C([H])([H])[C@]([H])(c2nc(-c3c([H])c([H])c(C(=O)N([H])c4nc([H])c([H])c(C(F)(F)F)c4[H])c([H])c3[H])c3c(N([H])[H])nc([H])c([H])n32)C([H])([H])C1([H])[H]


 42 46  0  0  0  0  0  0  0  0999 V2000
  -91.3987   32.9795   -3.9938 N   0  0  0  0  0  0  0  0  0  0  0  0
  -92.1940   31.8371   -4.1506 C   0  0  0  0  0  0  0  0  0  0  0  0
  -93.4188   32.0216   -4.7186 N   0  0  0  0  0  0  0  0  0  0  0  0
  -94.2235   30.9861   -4.9663 C   0  0  0  0  0  0  0  0  0  0  0  0
  -93.8054   29.6837   -4.6488 C   0  0  0  0  0  0  0  0  0  0  0  0
  -92.6159   29.5014   -4.1002 N   0  0  0  0  0  0  0  0  0  0  0  0
  -91.9973   28.3411   -3.7105 C   0  0  0  0  0  0  0  0  0  0  0  0
  -90.8276   28.6927   -3.2192 N   0  0  0  0  0  0  0  0  0  0  0  0
  -90.6467   30.0199   -3.2669 C   0  0  0  0  0  0  0  0  0  0  0  0
  -91.7977   30.5591   -3.8392 C   0  0  0  0  0  0  0  0  0  0  0  0
  -91.6504   33.7081   -3.2810 H   0  0  0  0  0  0  0  0  0  0  0  0
  -90.5301   33.1797   -4.5590 H   0  0  0  0  0  0  0  0  0  0  0  0
  -89.5044   30.8165   -2.8385 C   0  0  0  0  0  0  0  0  0  0  0  0
  -89.4800   31.3638   -1.5662 C   0  0  0  0  0  0  0  0  0  0  0  0
  -88.4872   32.2034   -1.1461 C   0  0  0  0  0  0  0  0  0  0  0  0
  -87.4399   32.5559   -1.9715 C   0  0  0  0  0  0  0  0  0  0  0  0
  -87.4539   32.0052   -3.2548 C   0  0  0  0  0  0  0  0  0  0  0  0
  -88.4600   31.1564   -3.6806 C   0  0  0  0  0  0  0  0  0  0  0  0
  -86.4465   33.5433   -1.6148 C   0  0  0  0  0  0  0  0  0  0  0  0
  -86.6695   34.7208   -2.1906 O   0  0  0  0  0  0  0  0  0  0  0  0
  -85.3689   33.4889   -0.8007 N   0  0  0  0  0  0  0  0  0  0  0  0
  -84.7856   34.4510   -0.6590 H   0  0  0  0  0  0  0  0  0  0  0  0
  -84.7329   32.4031   -0.1631 C   0  0  0  0  0  0  0  0  0  0  0  0
  -85.2860   31.5047    0.6797 C   0  0  0  0  0  0  0  0  0  0  0  0
  -84.5938   30.5132    1.3618 C   0  0  0  0  0  0  0  0  0  0  0  0
  -83.2371   30.4369    1.1642 C   0  0  0  0  0  0  0  0  0  0  0  0
  -82.6642   31.3522    0.2991 C   0  0  0  0  0  0  0  0  0  0  0  0
  -83.3711   32.2724   -0.3240 N   0  0  0  0  0  0  0  0  0  0  0  0
  -85.3094   29.5370    2.1639 C   0  0  0  0  0  0  0  0  0  0  0  0
  -85.4690   29.8228    3.4879 F   0  0  0  0  0  0  0  0  0  0  0  0
  -84.5280   28.3553    2.0603 F   0  0  0  0  0  0  0  0  0  0  0  0
  -86.5471   29.1611    1.6478 F   0  0  0  0  0  0  0  0  0  0  0  0
  -92.6321   27.0111   -3.9002 C   0  0  0  0  0  0  0  0  0  0  0  0
  -91.7669   25.9025   -3.2891 C   0  0  0  0  0  0  0  0  0  0  0  0
  -92.6365   24.6449   -3.2660 C   0  0  0  0  0  0  0  0  0  0  0  0
  -93.9155   24.7989   -4.0290 C   0  0  0  0  0  0  0  0  0  0  0  0
  -93.7858   25.4448   -5.3733 C   0  0  0  0  0  0  0  0  0  0  0  0
  -92.8806   26.6373   -5.3101 C   0  0  0  0  0  0  0  0  0  0  0  0
  -94.4427   23.4143   -4.2607 C   0  0  0  0  0  0  0  0  0  0  0  0
  -94.6782   22.9683   -5.5588 O   0  0  0  0  0  0  0  0  0  0  0  0
  -94.6817   22.6430   -3.3282 O   0  0  0  0  0  0  0  0  0  0  0  0
  -93.9007   22.8763   -6.2198 H   0  0  0  0  0  0  0  0  0  0  0  0
  1  2  1  0  0  0
  2  3  2  0  0  0
  3  4  1  0  0  0
  4  5  2  0  0  0
  5  6  1  0  0  0
  6  7  1  0  0  0
  7  8  2  0  0  0
  8  9  1  0  0  0
  9 13  1  0  0  0
 13 14  2  0  0  0
 14 15  1  0  0  0
 15 16  2  0  0  0
 16 17  1  0  0  0
 17 18  2  0  0  0
 16 19  1  0  0  0
 19 20  2  0  0  0
 19 21  1  0  0  0
 21 23  1  0  0  0
 23 24  2  0  0  0
 24 25  1  0  0  0
 25 26  2  0  0  0
 26 27  1  0  0  0
 27 28  2  0  0  0
 25 29  1  0  0  0
 29 30  1  0  0  0
 29 31  1  0  0  0
 29 32  1  0  0  0
  9 10  2  0  0  0
  7 33  1  0  0  0
 33 34  1  0  0  0
 34 35  1  0  0  0
 35 36  1  0  0  0
 36 37  1  0  0  0
 37 38  1  0  0  0
 36 39  1  0  0  0
 39 40  1  0  0  0
 39 41  2  0  0  0
 10  2  1  0  0  0
 38 33  1  0  0  0
 10  6  1  0  0  0
 18 13  1  0  0  0
 28 23  1  0  0  0
  1 11  1  0  0  0
  1 12  1  0  0  0
 21 22  1  0  0  0
 40 42  1  0  0  0
M  END
> <minimizedAffinity>
-9.67088

> <CNNscore>
0.0861662775

> <CNNaffinity>
6.5794687271

> <CNN_VS>
0.5669283271

> <CNNaffinity_variance>
0.0714963451

$$$$
[H]OC(=O)[C@]1([H])C([H])([H])C([H])([H])[C@]([H])(c2nc(-c3c([H])c([H])c(C(=O)N([H])c4nc([H])c([H])c(C(F)(F)F)c4[H])c([H])c3[H])c3c(N([H])[H])nc([H])c([H])n32)C([H])([H])C1([H])[H]


 42 46  0  0  0  0  0  0  0  0999 V2000
  -87.1706   30.1521   -0.0846 N   0  0  0  0  0  0  0  0  0  0  0  0
  -86.8229   31.3924   -0.6352 C   0  0  0  0  0  0  0  0  0  0  0  0
  -85.7170   31.9986   -0.1192 N   0  0  0  0  0  0  0  0  0  0  0  0
  -85.2703   33.1524   -0.6197 C   0  0  0  0  0  0  0  0  0  0  0  0
  -85.9384   33.7516   -1.6997 C   0  0  0  0  0  0  0  0  0  0  0  0
  -87.0103   33.1639   -2.2044 N   0  0  0  0  0  0  0  0  0  0  0  0
  -87.8159   33.5508   -3.2447 C   0  0  0  0  0  0  0  0  0  0  0  0
  -88.7496   32.6288   -3.3519 N   0  0  0  0  0  0  0  0  0  0  0  0
  -88.5985   31.6593   -2.4389 C   0  0  0  0  0  0  0  0  0  0  0  0
  -87.4717   31.9905   -1.6881 C   0  0  0  0  0  0  0  0  0  0  0  0
  -87.5585   30.0933    0.8893 H   0  0  0  0  0  0  0  0  0  0  0  0
  -87.0685   29.2301   -0.5880 H   0  0  0  0  0  0  0  0  0  0  0  0
  -89.3986   30.4623   -2.2156 C   0  0  0  0  0  0  0  0  0  0  0  0
  -90.5022   30.5131   -1.3798 C   0  0  0  0  0  0  0  0  0  0  0  0
  -91.2269   29.4025   -1.0509 C   0  0  0  0  0  0  0  0  0  0  0  0
  -90.9005   28.1544   -1.5392 C   0  0  0  0  0  0  0  0  0  0  0  0
  -89.7918   28.0944   -2.3863 C   0  0  0  0  0  0  0  0  0  0  0  0
  -89.0572   29.2188   -2.7179 C   0  0  0  0  0  0  0  0  0  0  0  0
  -91.5549   26.9390   -1.1107 C   0  0  0  0  0  0  0  0  0  0  0  0
  -92.5985   26.6268   -1.8730 O   0  0  0  0  0  0  0  0  0  0  0  0
  -91.2861   26.0720   -0.1092 N   0  0  0  0  0  0  0  0  0  0  0  0
  -91.9460   25.1525   -0.0376 H   0  0  0  0  0  0  0  0  0  0  0  0
  -90.3897   26.1476    0.9774 C   0  0  0  0  0  0  0  0  0  0  0  0
  -90.6842   26.3968    2.2715 C   0  0  0  0  0  0  0  0  0  0  0  0
  -89.7533   26.5617    3.2883 C   0  0  0  0  0  0  0  0  0  0  0  0
  -88.4252   26.4625    2.9540 C   0  0  0  0  0  0  0  0  0  0  0  0
  -88.1163   26.2038    1.6303 C   0  0  0  0  0  0  0  0  0  0  0  0
  -89.0425   26.0543    0.7058 N   0  0  0  0  0  0  0  0  0  0  0  0
  -90.1892   26.7243    4.6638 C   0  0  0  0  0  0  0  0  0  0  0  0
  -89.9808   27.9438    5.2379 F   0  0  0  0  0  0  0  0  0  0  0  0
  -89.4353   25.7627    5.3881 F   0  0  0  0  0  0  0  0  0  0  0  0
  -91.5108   26.3532    4.8986 F   0  0  0  0  0  0  0  0  0  0  0  0
  -87.5445   34.7812   -4.0321 C   0  0  0  0  0  0  0  0  0  0  0  0
  -87.9965   36.0296   -3.2650 C   0  0  0  0  0  0  0  0  0  0  0  0
  -87.4046   37.2269   -4.0096 C   0  0  0  0  0  0  0  0  0  0  0  0
  -86.8008   36.8600   -5.3296 C   0  0  0  0  0  0  0  0  0  0  0  0
  -87.6241   35.9412   -6.1775 C   0  0  0  0  0  0  0  0  0  0  0  0
  -88.2009   34.8275   -5.3574 C   0  0  0  0  0  0  0  0  0  0  0  0
  -86.6460   38.1387   -6.0975 C   0  0  0  0  0  0  0  0  0  0  0  0
  -87.2990   39.2911   -5.6676 O   0  0  0  0  0  0  0  0  0  0  0  0
  -85.9515   38.2086   -7.1145 O   0  0  0  0  0  0  0  0  0  0  0  0
  -87.0654   39.7063   -4.7604 H   0  0  0  0  0  0  0  0  0  0  0  0
  1  2  1  0  0  0
  2  3  2  0  0  0
  3  4  1  0  0  0
  4  5  2  0  0  0
  5  6  1  0  0  0
  6  7  1  0  0  0
  7  8  2  0  0  0
  8  9  1  0  0  0
  9 13  1  0  0  0
 13 14  2  0  0  0
 14 15  1  0  0  0
 15 16  2  0  0  0
 16 17  1  0  0  0
 17 18  2  0  0  0
 16 19  1  0  0  0
 19 20  2  0  0  0
 19 21  1  0  0  0
 21 23  1  0  0  0
 23 24  2  0  0  0
 24 25  1  0  0  0
 25 26  2  0  0  0
 26 27  1  0  0  0
 27 28  2  0  0  0
 25 29  1  0  0  0
 29 30  1  0  0  0
 29 31  1  0  0  0
 29 32  1  0  0  0
  9 10  2  0  0  0
  7 33  1  0  0  0
 33 34  1  0  0  0
 34 35  1  0  0  0
 35 36  1  0  0  0
 36 37  1  0  0  0
 37 38  1  0  0  0
 36 39  1  0  0  0
 39 40  1  0  0  0
 39 41  2  0  0  0
 10  2  1  0  0  0
 38 33  1  0  0  0
 10  6  1  0  0  0
 18 13  1  0  0  0
 28 23  1  0  0  0
  1 11  1  0  0  0
  1 12  1  0  0  0
 21 22  1  0  0  0
 40 42  1  0  0  0
M  END
> <minimizedAffinity>
-9.19561

> <CNNscore>
0.0693880320

> <CNNaffinity>
6.7169694901

> <CNN_VS>
0.4660772979

> <CNNaffinity_variance>
0.1969504058

$$$$
[H]OC(=O)[C@]1([H])C([H])([H])C([H])([H])[C@]([H])(c2nc(-c3c([H])c([H])c(C(=O)N([H])c4nc([H])c([H])c(C(F)(F)F)c4[H])c([H])c3[H])c3c(N([H])[H])nc([H])c([H])n32)C([H])([H])C1([H])[H]


 42 46  0  0  0  0  0  0  0  0999 V2000
  -88.8154   28.7442   -0.3917 N   0  0  0  0  0  0  0  0  0  0  0  0
  -88.2750   29.9966   -0.7107 C   0  0  0  0  0  0  0  0  0  0  0  0
  -87.1401   30.3563   -0.0478 N   0  0  0  0  0  0  0  0  0  0  0  0
  -86.5163   31.5026   -0.3270 C   0  0  0  0  0  0  0  0  0  0  0  0
  -87.0251   32.3511   -1.3236 C   0  0  0  0  0  0  0  0  0  0  0  0
  -88.1248   32.0030   -1.9707 N   0  0  0  0  0  0  0  0  0  0  0  0
  -88.7993   32.6563   -2.9702 C   0  0  0  0  0  0  0  0  0  0  0  0
  -89.8327   31.8995   -3.2746 N   0  0  0  0  0  0  0  0  0  0  0  0
  -89.8707   30.7863   -2.5293 C   0  0  0  0  0  0  0  0  0  0  0  0
  -88.7667   30.8369   -1.6799 C   0  0  0  0  0  0  0  0  0  0  0  0
  -89.2753   28.5856    0.5387 H   0  0  0  0  0  0  0  0  0  0  0  0
  -88.7961   27.9083   -1.0359 H   0  0  0  0  0  0  0  0  0  0  0  0
  -90.8302   29.6899   -2.5475 C   0  0  0  0  0  0  0  0  0  0  0  0
  -92.0142   29.7941   -1.8360 C   0  0  0  0  0  0  0  0  0  0  0  0
  -92.9021   28.7609   -1.7310 C   0  0  0  0  0  0  0  0  0  0  0  0
  -92.6702   27.5431   -2.3357 C   0  0  0  0  0  0  0  0  0  0  0  0
  -91.4809   27.4303   -3.0590 C   0  0  0  0  0  0  0  0  0  0  0  0
  -90.5813   28.4761   -3.1639 C   0  0  0  0  0  0  0  0  0  0  0  0
  -93.5136   26.3860   -2.1382 C   0  0  0  0  0  0  0  0  0  0  0  0
  -94.7519   26.5768   -2.5832 O   0  0  0  0  0  0  0  0  0  0  0  0
  -93.2657   25.1652   -1.6138 N   0  0  0  0  0  0  0  0  0  0  0  0
  -94.1170   24.4162   -1.6363 H   0  0  0  0  0  0  0  0  0  0  0  0
  -92.1534   24.6585   -0.9095 C   0  0  0  0  0  0  0  0  0  0  0  0
  -91.4473   25.2716    0.0647 C   0  0  0  0  0  0  0  0  0  0  0  0
  -90.2961   24.7703    0.6572 C   0  0  0  0  0  0  0  0  0  0  0  0
  -89.8370   23.5522    0.2199 C   0  0  0  0  0  0  0  0  0  0  0  0
  -90.5577   22.9169   -0.7758 C   0  0  0  0  0  0  0  0  0  0  0  0
  -91.6465   23.4392   -1.3016 N   0  0  0  0  0  0  0  0  0  0  0  0
  -89.6775   25.4704    1.7687 C   0  0  0  0  0  0  0  0  0  0  0  0
  -89.6748   24.8340    2.9751 F   0  0  0  0  0  0  0  0  0  0  0  0
  -90.4390   26.6621    1.9020 F   0  0  0  0  0  0  0  0  0  0  0  0
  -88.3871   25.9292    1.5161 F   0  0  0  0  0  0  0  0  0  0  0  0
  -88.3190   33.9470   -3.5278 C   0  0  0  0  0  0  0  0  0  0  0  0
  -89.0924   35.1239   -2.9212 C   0  0  0  0  0  0  0  0  0  0  0  0
  -88.3297   36.3880   -3.3198 C   0  0  0  0  0  0  0  0  0  0  0  0
  -87.2559   36.1337   -4.3317 C   0  0  0  0  0  0  0  0  0  0  0  0
  -87.6500   35.2538   -5.4769 C   0  0  0  0  0  0  0  0  0  0  0  0
  -88.4316   34.0683   -4.9981 C   0  0  0  0  0  0  0  0  0  0  0  0
  -86.8934   37.4678   -4.9127 C   0  0  0  0  0  0  0  0  0  0  0  0
  -87.8499   38.4773   -4.9855 O   0  0  0  0  0  0  0  0  0  0  0  0
  -85.7606   37.7078   -5.3377 O   0  0  0  0  0  0  0  0  0  0  0  0
  -88.2555   38.8640   -4.1278 H   0  0  0  0  0  0  0  0  0  0  0  0
  1  2  1  0  0  0
  2  3  2  0  0  0
  3  4  1  0  0  0
  4  5  2  0  0  0
  5  6  1  0  0  0
  6  7  1  0  0  0
  7  8  2  0  0  0
  8  9  1  0  0  0
  9 13  1  0  0  0
 13 14  2  0  0  0
 14 15  1  0  0  0
 15 16  2  0  0  0
 16 17  1  0  0  0
 17 18  2  0  0  0
 16 19  1  0  0  0
 19 20  2  0  0  0
 19 21  1  0  0  0
 21 23  1  0  0  0
 23 24  2  0  0  0
 24 25  1  0  0  0
 25 26  2  0  0  0
 26 27  1  0  0  0
 27 28  2  0  0  0
 25 29  1  0  0  0
 29 30  1  0  0  0
 29 31  1  0  0  0
 29 32  1  0  0  0
  9 10  2  0  0  0
  7 33  1  0  0  0
 33 34  1  0  0  0
 34 35  1  0  0  0
 35 36  1  0  0  0
 36 37  1  0  0  0
 37 38  1  0  0  0
 36 39  1  0  0  0
 39 40  1  0  0  0
 39 41  2  0  0  0
 10  2  1  0  0  0
 38 33  1  0  0  0
 10  6  1  0  0  0
 18 13  1  0  0  0
 28 23  1  0  0  0
  1 11  1  0  0  0
  1 12  1  0  0  0
 21 22  1  0  0  0
 40 42  1  0  0  0
M  END
> <minimizedAffinity>
-7.21471

> <CNNscore>
0.0575156994

> <CNNaffinity>
6.1575632095

> <CNN_VS>
0.3541565537

> <CNNaffinity_variance>
0.2479403764

$$$$
[H]OC(=O)[C@]1([H])C([H])([H])C([H])([H])[C@]([H])(c2nc(-c3c([H])c([H])c(C(=O)N([H])c4nc([H])c([H])c(C(F)(F)F)c4[H])c([H])c3[H])c3c(N([H])[H])nc([H])c([H])n32)C([H])([H])C1([H])[H]


 42 46  0  0  0  0  0  0  0  0999 V2000
  -91.9036   29.2132   -2.8320 N   0  0  0  0  0  0  0  0  0  0  0  0
  -92.0194   30.2364   -3.7817 C   0  0  0  0  0  0  0  0  0  0  0  0
  -93.2261   30.3560   -4.4033 N   0  0  0  0  0  0  0  0  0  0  0  0
  -93.4534   31.3384   -5.2776 C   0  0  0  0  0  0  0  0  0  0  0  0
  -92.4429   32.2719   -5.5591 C   0  0  0  0  0  0  0  0  0  0  0  0
  -91.2717   32.1600   -4.9550 N   0  0  0  0  0  0  0  0  0  0  0  0
  -90.1493   32.9405   -5.0644 C   0  0  0  0  0  0  0  0  0  0  0  0
  -89.2509   32.4106   -4.2611 N   0  0  0  0  0  0  0  0  0  0  0  0
  -89.7244   31.3262   -3.6315 C   0  0  0  0  0  0  0  0  0  0  0  0
  -91.0364   31.1521   -4.0689 C   0  0  0  0  0  0  0  0  0  0  0  0
  -91.8787   28.2081   -3.1346 H   0  0  0  0  0  0  0  0  0  0  0  0
  -91.8390   29.3746   -1.7910 H   0  0  0  0  0  0  0  0  0  0  0  0
  -89.0701   30.4558   -2.6635 C   0  0  0  0  0  0  0  0  0  0  0  0
  -89.2289   30.6862   -1.3068 C   0  0  0  0  0  0  0  0  0  0  0  0
  -88.5582   29.9697   -0.3561 C   0  0  0  0  0  0  0  0  0  0  0  0
  -87.6777   28.9636   -0.6952 C   0  0  0  0  0  0  0  0  0  0  0  0
  -87.5147   28.7213   -2.0609 C   0  0  0  0  0  0  0  0  0  0  0  0
  -88.1926   29.4479   -3.0234 C   0  0  0  0  0  0  0  0  0  0  0  0
  -86.8494   28.2759    0.2692 C   0  0  0  0  0  0  0  0  0  0  0  0
  -87.3775   27.1207    0.6619 O   0  0  0  0  0  0  0  0  0  0  0  0
  -85.6503   28.5819    0.8128 N   0  0  0  0  0  0  0  0  0  0  0  0
  -85.1969   27.8161    1.5157 H   0  0  0  0  0  0  0  0  0  0  0  0
  -84.8785   29.7619    0.7706 C   0  0  0  0  0  0  0  0  0  0  0  0
  -85.1576   30.9046    0.1073 C   0  0  0  0  0  0  0  0  0  0  0  0
  -84.3150   32.0041    0.0145 C   0  0  0  0  0  0  0  0  0  0  0  0
  -83.0995   31.9266    0.6487 C   0  0  0  0  0  0  0  0  0  0  0  0
  -82.8084   30.7598    1.3332 C   0  0  0  0  0  0  0  0  0  0  0  0
  -83.6481   29.7466    1.3897 N   0  0  0  0  0  0  0  0  0  0  0  0
  -84.7634   33.2199   -0.6406 C   0  0  0  0  0  0  0  0  0  0  0  0
  -85.0783   33.1283   -1.9645 F   0  0  0  0  0  0  0  0  0  0  0  0
  -83.6682   34.1149   -0.5100 F   0  0  0  0  0  0  0  0  0  0  0  0
  -85.8056   33.8758    0.0100 F   0  0  0  0  0  0  0  0  0  0  0  0
  -90.1115   34.1434   -5.9356 C   0  0  0  0  0  0  0  0  0  0  0  0
  -90.5548   35.3907   -5.1617 C   0  0  0  0  0  0  0  0  0  0  0  0
  -90.1920   36.5897   -6.0386 C   0  0  0  0  0  0  0  0  0  0  0  0
  -89.7619   36.2013   -7.4192 C   0  0  0  0  0  0  0  0  0  0  0  0
  -90.6162   35.1714   -8.0904 C   0  0  0  0  0  0  0  0  0  0  0  0
  -90.9604   34.0611   -7.1447 C   0  0  0  0  0  0  0  0  0  0  0  0
  -89.8404   37.4437   -8.2552 C   0  0  0  0  0  0  0  0  0  0  0  0
  -88.6751   38.0212   -8.7532 O   0  0  0  0  0  0  0  0  0  0  0  0
  -90.9170   37.9837   -8.5213 O   0  0  0  0  0  0  0  0  0  0  0  0
  -88.0898   37.5065   -9.4182 H   0  0  0  0  0  0  0  0  0  0  0  0
  1  2  1  0  0  0
  2  3  2  0  0  0
  3  4  1  0  0  0
  4  5  2  0  0  0
  5  6  1  0  0  0
  6  7  1  0  0  0
  7  8  2  0  0  0
  8  9  1  0  0  0
  9 13  1  0  0  0
 13 14  2  0  0  0
 14 15  1  0  0  0
 15 16  2  0  0  0
 16 17  1  0  0  0
 17 18  2  0  0  0
 16 19  1  0  0  0
 19 20  2  0  0  0
 19 21  1  0  0  0
 21 23  1  0  0  0
 23 24  2  0  0  0
 24 25  1  0  0  0
 25 26  2  0  0  0
 26 27  1  0  0  0
 27 28  2  0  0  0
 25 29  1  0  0  0
 29 30  1  0  0  0
 29 31  1  0  0  0
 29 32  1  0  0  0
  9 10  2  0  0  0
  7 33  1  0  0  0
 33 34  1  0  0  0
 34 35  1  0  0  0
 35 36  1  0  0  0
 36 37  1  0  0  0
 37 38  1  0  0  0
 36 39  1  0  0  0
 39 40  1  0  0  0
 39 41  2  0  0  0
 10  2  1  0  0  0
 38 33  1  0  0  0
 10  6  1  0  0  0
 18 13  1  0  0  0
 28 23  1  0  0  0
  1 11  1  0  0  0
  1 12  1  0  0  0
 21 22  1  0  0  0
 40 42  1  0  0  0
M  END
> <minimizedAffinity>
-9.26728

> <CNNscore>
0.0502082258

> <CNNaffinity>
6.5042991638

> <CNN_VS>
0.3265693188

> <CNNaffinity_variance>
0.2377558202

$$$$
[H]OC(=O)[C@]1([H])C([H])([H])C([H])([H])[C@]([H])(c2nc(-c3c([H])c([H])c(C(=O)N([H])c4nc([H])c([H])c(C(F)(F)F)c4[H])c([H])c3[H])c3c(N([H])[H])nc([H])c([H])n32)C([H])([H])C1([H])[H]


 42 46  0  0  0  0  0  0  0  0999 V2000
  -91.2931   29.3953   -3.5568 N   0  0  0  0  0  0  0  0  0  0  0  0
  -91.7057   28.1065   -3.1946 C   0  0  0  0  0  0  0  0  0  0  0  0
  -92.7077   27.5574   -3.9372 N   0  0  0  0  0  0  0  0  0  0  0  0
  -93.1270   26.3110   -3.7090 C   0  0  0  0  0  0  0  0  0  0  0  0
  -92.5257   25.5449   -2.6975 C   0  0  0  0  0  0  0  0  0  0  0  0
  -91.5510   26.0744   -1.9772 N   0  0  0  0  0  0  0  0  0  0  0  0
  -90.8206   25.5290   -0.9525 C   0  0  0  0  0  0  0  0  0  0  0  0
  -89.9746   26.4603   -0.5651 N   0  0  0  0  0  0  0  0  0  0  0  0
  -90.1111   27.5852   -1.2809 C   0  0  0  0  0  0  0  0  0  0  0  0
  -91.1285   27.3496   -2.2041 C   0  0  0  0  0  0  0  0  0  0  0  0
  -91.9157   30.2218   -3.3790 H   0  0  0  0  0  0  0  0  0  0  0  0
  -90.3686   29.6149   -4.0162 H   0  0  0  0  0  0  0  0  0  0  0  0
  -89.3778   28.8406   -1.1849 C   0  0  0  0  0  0  0  0  0  0  0  0
  -89.8758   29.8759   -0.4109 C   0  0  0  0  0  0  0  0  0  0  0  0
  -89.2880   31.1086   -0.3661 C   0  0  0  0  0  0  0  0  0  0  0  0
  -88.1519   31.3956   -1.0935 C   0  0  0  0  0  0  0  0  0  0  0  0
  -87.6401   30.3563   -1.8734 C   0  0  0  0  0  0  0  0  0  0  0  0
  -88.2363   29.1087   -1.9200 C   0  0  0  0  0  0  0  0  0  0  0  0
  -87.5789   32.7198   -1.1801 C   0  0  0  0  0  0  0  0  0  0  0  0
  -88.4052   33.5962   -1.7429 O   0  0  0  0  0  0  0  0  0  0  0  0
  -86.3881   33.2178   -0.7790 N   0  0  0  0  0  0  0  0  0  0  0  0
  -86.2233   34.3302   -0.9256 H   0  0  0  0  0  0  0  0  0  0  0  0
  -85.2205   32.5827   -0.3064 C   0  0  0  0  0  0  0  0  0  0  0  0
  -85.1390   31.5416    0.5496 C   0  0  0  0  0  0  0  0  0  0  0  0
  -83.9611   31.0168    1.0641 C   0  0  0  0  0  0  0  0  0  0  0  0
  -82.7821   31.6010    0.6712 C   0  0  0  0  0  0  0  0  0  0  0  0
  -82.8581   32.6662   -0.2087 C   0  0  0  0  0  0  0  0  0  0  0  0
  -84.0055   33.1223   -0.6671 N   0  0  0  0  0  0  0  0  0  0  0  0
  -83.9890   29.8286    1.8981 C   0  0  0  0  0  0  0  0  0  0  0  0
  -84.6026   29.9394    3.1112 F   0  0  0  0  0  0  0  0  0  0  0  0
  -82.6200   29.5245    2.1240 F   0  0  0  0  0  0  0  0  0  0  0  0
  -84.4803   28.6897    1.2647 F   0  0  0  0  0  0  0  0  0  0  0  0
  -91.0303   24.1304   -0.4968 C   0  0  0  0  0  0  0  0  0  0  0  0
  -91.9565   24.0885    0.7245 C   0  0  0  0  0  0  0  0  0  0  0  0
  -92.3446   22.6220    0.9171 C   0  0  0  0  0  0  0  0  0  0  0  0
  -91.5544   21.6856    0.0566 C   0  0  0  0  0  0  0  0  0  0  0  0
  -90.0800   21.9422    0.0164 C   0  0  0  0  0  0  0  0  0  0  0  0
  -89.7943   23.4063   -0.1264 C   0  0  0  0  0  0  0  0  0  0  0  0
  -91.7417   20.3148    0.6350 C   0  0  0  0  0  0  0  0  0  0  0  0
  -90.9487   19.2591    0.1922 O   0  0  0  0  0  0  0  0  0  0  0  0
  -92.5881   20.0829    1.5018 O   0  0  0  0  0  0  0  0  0  0  0  0
  -89.9354   19.2788    0.3432 H   0  0  0  0  0  0  0  0  0  0  0  0
  1  2  1  0  0  0
  2  3  2  0  0  0
  3  4  1  0  0  0
  4  5  2  0  0  0
  5  6  1  0  0  0
  6  7  1  0  0  0
  7  8  2  0  0  0
  8  9  1  0  0  0
  9 13  1  0  0  0
 13 14  2  0  0  0
 14 15  1  0  0  0
 15 16  2  0  0  0
 16 17  1  0  0  0
 17 18  2  0  0  0
 16 19  1  0  0  0
 19 20  2  0  0  0
 19 21  1  0  0  0
 21 23  1  0  0  0
 23 24  2  0  0  0
 24 25  1  0  0  0
 25 26  2  0  0  0
 26 27  1  0  0  0
 27 28  2  0  0  0
 25 29  1  0  0  0
 29 30  1  0  0  0
 29 31  1  0  0  0
 29 32  1  0  0  0
  9 10  2  0  0  0
  7 33  1  0  0  0
 33 34  1  0  0  0
 34 35  1  0  0  0
 35 36  1  0  0  0
 36 37  1  0  0  0
 37 38  1  0  0  0
 36 39  1  0  0  0
 39 40  1  0  0  0
 39 41  2  0  0  0
 10  2  1  0  0  0
 38 33  1  0  0  0
 10  6  1  0  0  0
 18 13  1  0  0  0
 28 23  1  0  0  0
  1 11  1  0  0  0
  1 12  1  0  0  0
 21 22  1  0  0  0
 40 42  1  0  0  0
M  END
> <minimizedAffinity>
-10.46374

> <CNNscore>
0.0437890328

> <CNNaffinity>
6.3911256790

> <CNN_VS>
0.2798612118

> <CNNaffinity_variance>
0.2480643690

$$$$
[H]OC(=O)[C@]1([H])C([H])([H])C([H])([H])[C@]([H])(c2nc(-c3c([H])c([H])c(C(=O)N([H])c4nc([H])c([H])c(C(F)(F)F)c4[H])c([H])c3[H])c3c(N([H])[H])nc([H])c([H])n32)C([H])([H])C1([H])[H]


 42 46  0  0  0  0  0  0  0  0999 V2000
  -92.2284   29.9421   -5.7010 N   0  0  0  0  0  0  0  0  0  0  0  0
  -92.6842   28.7000   -5.2409 C   0  0  0  0  0  0  0  0  0  0  0  0
  -93.5600   28.0366   -6.0470 N   0  0  0  0  0  0  0  0  0  0  0  0
  -94.0025   26.8194   -5.7247 C   0  0  0  0  0  0  0  0  0  0  0  0
  -93.5566   26.2029   -4.5445 C   0  0  0  0  0  0  0  0  0  0  0  0
  -92.7042   26.8433   -3.7618 N   0  0  0  0  0  0  0  0  0  0  0  0
  -92.1339   26.4505   -2.5780 C   0  0  0  0  0  0  0  0  0  0  0  0
  -91.3607   27.4439   -2.1927 N   0  0  0  0  0  0  0  0  0  0  0  0
  -91.3935   28.4651   -3.0600 C   0  0  0  0  0  0  0  0  0  0  0  0
  -92.2590   28.0894   -4.0861 C   0  0  0  0  0  0  0  0  0  0  0  0
  -92.8749   30.7690   -5.7262 H   0  0  0  0  0  0  0  0  0  0  0  0
  -91.2463   30.1243   -6.0422 H   0  0  0  0  0  0  0  0  0  0  0  0
  -90.6896   29.7402   -3.0191 C   0  0  0  0  0  0  0  0  0  0  0  0
  -89.3823   29.8242   -3.4695 C   0  0  0  0  0  0  0  0  0  0  0  0
  -88.6388   30.9653   -3.3595 C   0  0  0  0  0  0  0  0  0  0  0  0
  -89.1527   32.1120   -2.7906 C   0  0  0  0  0  0  0  0  0  0  0  0
  -90.4717   32.0378   -2.3376 C   0  0  0  0  0  0  0  0  0  0  0  0
  -91.2238   30.8819   -2.4477 C   0  0  0  0  0  0  0  0  0  0  0  0
  -88.3606   33.2931   -2.5326 C   0  0  0  0  0  0  0  0  0  0  0  0
  -88.7386   34.3311   -3.2724 O   0  0  0  0  0  0  0  0  0  0  0  0
  -87.3421   33.5296   -1.6761 N   0  0  0  0  0  0  0  0  0  0  0  0
  -86.9359   34.5879   -1.6440 H   0  0  0  0  0  0  0  0  0  0  0  0
  -86.5766   32.6601   -0.8711 C   0  0  0  0  0  0  0  0  0  0  0  0
  -85.2398   32.6779   -0.6810 C   0  0  0  0  0  0  0  0  0  0  0  0
  -84.5202   31.7362    0.0421 C   0  0  0  0  0  0  0  0  0  0  0  0
  -85.2222   30.7029    0.6122 C   0  0  0  0  0  0  0  0  0  0  0  0
  -86.5929   30.6805    0.4243 C   0  0  0  0  0  0  0  0  0  0  0  0
  -87.2250   31.6032   -0.2712 N   0  0  0  0  0  0  0  0  0  0  0  0
  -83.0965   31.9134    0.2662 C   0  0  0  0  0  0  0  0  0  0  0  0
  -82.2938   30.8385    0.0203 F   0  0  0  0  0  0  0  0  0  0  0  0
  -82.9942   32.2318    1.6468 F   0  0  0  0  0  0  0  0  0  0  0  0
  -82.5452   33.0226   -0.3705 F   0  0  0  0  0  0  0  0  0  0  0  0
  -92.4026   25.1163   -1.9818 C   0  0  0  0  0  0  0  0  0  0  0  0
  -92.8085   25.2497   -0.5091 C   0  0  0  0  0  0  0  0  0  0  0  0
  -93.3486   23.8822   -0.0887 C   0  0  0  0  0  0  0  0  0  0  0  0
  -93.1055   22.8137   -1.1090 C   0  0  0  0  0  0  0  0  0  0  0  0
  -91.7282   22.7888   -1.6950 C   0  0  0  0  0  0  0  0  0  0  0  0
  -91.2638   24.1731   -2.0320 C   0  0  0  0  0  0  0  0  0  0  0  0
  -93.3041   21.5027   -0.4085 C   0  0  0  0  0  0  0  0  0  0  0  0
  -93.1345   20.3093   -1.1059 O   0  0  0  0  0  0  0  0  0  0  0  0
  -93.6195   21.4409    0.7823 O   0  0  0  0  0  0  0  0  0  0  0  0
  -92.2166   20.0641   -1.4896 H   0  0  0  0  0  0  0  0  0  0  0  0
  1  2  1  0  0  0
  2  3  2  0  0  0
  3  4  1  0  0  0
  4  5  2  0  0  0
  5  6  1  0  0  0
  6  7  1  0  0  0
  7  8  2  0  0  0
  8  9  1  0  0  0
  9 13  1  0  0  0
 13 14  2  0  0  0
 14 15  1  0  0  0
 15 16  2  0  0  0
 16 17  1  0  0  0
 17 18  2  0  0  0
 16 19  1  0  0  0
 19 20  2  0  0  0
 19 21  1  0  0  0
 21 23  1  0  0  0
 23 24  2  0  0  0
 24 25  1  0  0  0
 25 26  2  0  0  0
 26 27  1  0  0  0
 27 28  2  0  0  0
 25 29  1  0  0  0
 29 30  1  0  0  0
 29 31  1  0  0  0
 29 32  1  0  0  0
  9 10  2  0  0  0
  7 33  1  0  0  0
 33 34  1  0  0  0
 34 35  1  0  0  0
 35 36  1  0  0  0
 36 37  1  0  0  0
 37 38  1  0  0  0
 36 39  1  0  0  0
 39 40  1  0  0  0
 39 41  2  0  0  0
 10  2  1  0  0  0
 38 33  1  0  0  0
 10  6  1  0  0  0
 18 13  1  0  0  0
 28 23  1  0  0  0
  1 11  1  0  0  0
  1 12  1  0  0  0
 21 22  1  0  0  0
 40 42  1  0  0  0
M  END
> <minimizedAffinity>
-8.62086

> <CNNscore>
0.0407553017

> <CNNaffinity>
6.2195396423

> <CNN_VS>
0.2534792125

> <CNNaffinity_variance>
0.1320605427

$$$$
[H]O[C@@]1([H])[C@@]([H])(N([H])[C@]2([H])C([H])([H])C([H])([H])C([H])([H])[C@]2([H])[N+]([H])(C([H])([H])[H])C([H])([H])[H])C([H])(N([H])C([H])([H])c2c([H])c([H])c(Cl)c([H])c2[H])[C@@]([H])(O[H])[C@]1([H])O[H]


 32 34  0  0  0  0  0  0  0  0999 V2000
  -89.3836   30.6028   -3.3086 C   0  0  0  0  0  0  0  0  0  0  0  0
  -89.7352   31.1402   -4.6433 C   0  0  0  0  0  0  0  0  0  0  0  0
  -88.7191   31.1013   -5.5809 O   0  0  0  0  0  0  0  0  0  0  0  0
  -89.8108   32.6663   -4.2769 C   0  0  0  0  0  0  0  0  0  0  0  0
  -90.8436   32.9011   -3.3991 O   0  0  0  0  0  0  0  0  0  0  0  0
  -88.4313   32.7823   -3.6149 C   0  0  0  0  0  0  0  0  0  0  0  0
  -87.4986   32.8848   -4.6603 O   0  0  0  0  0  0  0  0  0  0  0  0
  -88.2595   31.5314   -2.8156 C   0  0  0  0  0  0  0  0  0  0  0  0
  -87.9875   30.5147   -5.2161 H   0  0  0  0  0  0  0  0  0  0  0  0
  -91.5415   32.2065   -3.4155 H   0  0  0  0  0  0  0  0  0  0  0  0
  -87.8055   33.6220   -5.2462 H   0  0  0  0  0  0  0  0  0  0  0  0
  -89.0597   29.2680   -3.2051 N   0  0  0  0  0  0  0  0  0  0  0  0
  -89.0382   28.6741   -4.0471 H   0  0  0  0  0  0  0  0  0  0  0  0
  -89.3425   27.6544   -1.2713 C   0  0  0  0  0  0  0  0  0  0  0  0
  -88.5494   27.7398    0.0547 C   0  0  0  0  0  0  0  0  0  0  0  0
  -87.1515   28.0116   -0.3954 C   0  0  0  0  0  0  0  0  0  0  0  0
  -87.1942   28.2465   -1.9102 C   0  0  0  0  0  0  0  0  0  0  0  0
  -88.6356   28.7144   -2.0388 C   0  0  0  0  0  0  0  0  0  0  0  0
  -89.2995   25.2656   -0.8094 C   0  0  0  0  0  0  0  0  0  0  0  0
  -89.1984   26.3132   -1.8190 N   0  0  0  0  0  0  0  0  0  0  0  0
  -90.3418   26.0809   -2.7013 C   0  0  0  0  0  0  0  0  0  0  0  0
  -88.3042   26.1517   -2.3228 H   0  0  0  0  0  0  0  0  0  0  0  0
  -88.5548   31.8452   -1.4185 N   0  0  0  0  0  0  0  0  0  0  0  0
  -88.2779   31.0249   -0.8159 H   0  0  0  0  0  0  0  0  0  0  0  0
  -87.8133   33.0175   -0.9943 C   0  0  0  0  0  0  0  0  0  0  0  0
  -86.4496   32.6282   -0.5934 C   0  0  0  0  0  0  0  0  0  0  0  0
  -85.3525   33.3883   -0.9792 C   0  0  0  0  0  0  0  0  0  0  0  0
  -84.0765   33.0352   -0.6135 C   0  0  0  0  0  0  0  0  0  0  0  0
  -83.8465   31.9121    0.1491 C   0  0  0  0  0  0  0  0  0  0  0  0
  -82.1761   31.5547    0.5573 Cl  0  0  0  0  0  0  0  0  0  0  0  0
  -84.9112   31.1605    0.5323 C   0  0  0  0  0  0  0  0  0  0  0  0
  -86.2173   31.5166    0.1622 C   0  0  0  0  0  0  0  0  0  0  0  0
 19 20  1  0  0  0
 20 21  1  0  0  0
 20 14  1  0  0  0
 14 15  1  0  0  0
 15 16  1  0  0  0
 16 17  1  0  0  0
 17 18  1  0  0  0
 18 12  1  0  0  0
 12  1  1  0  0  0
  1  2  1  0  0  0
  2  3  1  0  0  0
  2  4  1  0  0  0
  4  5  1  0  0  0
  4  6  1  0  0  0
  6  7  1  0  0  0
  6  8  1  0  0  0
  8 23  1  0  0  0
 23 25  1  0  0  0
 25 26  1  0  0  0
 26 27  2  0  0  0
 27 28  1  0  0  0
 28 29  2  0  0  0
 29 30  1  0  0  0
 29 31  1  0  0  0
 31 32  2  0  0  0
 18 14  1  0  0  0
  8  1  1  0  0  0
 32 26  1  0  0  0
 20 22  1  0  0  0
 12 13  1  0  0  0
  3  9  1  0  0  0
  5 10  1  0  0  0
  7 11  1  0  0  0
 23 24  1  0  0  0
M  CHG 1  20   1
M  END
> <minimizedAffinity>
-8.29592

> <CNNscore>
0.3015260100

> <CNNaffinity>
5.5963716507

> <CNN_VS>
1.6874516010

> <CNNaffinity_variance>
0.1344689876

$$$$
[H]O[C@@]1([H])[C@@]([H])(N([H])[C@]2([H])C([H])([H])C([H])([H])C([H])([H])[C@]2([H])[N+]([H])(C([H])([H])[H])C([H])([H])[H])C([H])(N([H])C([H])([H])c2c([H])c([H])c(Cl)c([H])c2[H])[C@@]([H])(O[H])[C@]1([H])O[H]


 32 34  0  0  0  0  0  0  0  0999 V2000
  -90.3940   30.4937   -2.0173 C   0  0  0  0  0  0  0  0  0  0  0  0
  -91.4181   30.6578   -3.0747 C   0  0  0  0  0  0  0  0  0  0  0  0
  -92.5450   31.3665   -2.6993 O   0  0  0  0  0  0  0  0  0  0  0  0
  -91.9429   29.1780   -3.1344 C   0  0  0  0  0  0  0  0  0  0  0  0
  -90.9530   28.3326   -3.5791 O   0  0  0  0  0  0  0  0  0  0  0  0
  -92.2392   29.0097   -1.6382 C   0  0  0  0  0  0  0  0  0  0  0  0
  -93.4737   29.6389   -1.4066 O   0  0  0  0  0  0  0  0  0  0  0  0
  -91.1117   29.6819   -0.9242 C   0  0  0  0  0  0  0  0  0  0  0  0
  -92.3475   31.8130   -1.8195 H   0  0  0  0  0  0  0  0  0  0  0  0
  -90.2464   28.7874   -4.0925 H   0  0  0  0  0  0  0  0  0  0  0  0
  -94.1142   29.2616   -2.0609 H   0  0  0  0  0  0  0  0  0  0  0  0
  -89.7734   31.6213   -1.5266 N   0  0  0  0  0  0  0  0  0  0  0  0
  -89.8720   31.8748   -0.5325 H   0  0  0  0  0  0  0  0  0  0  0  0
  -87.7783   33.1664   -1.7609 C   0  0  0  0  0  0  0  0  0  0  0  0
  -87.4638   33.9930   -3.0308 C   0  0  0  0  0  0  0  0  0  0  0  0
  -87.6968   33.0223   -4.1416 C   0  0  0  0  0  0  0  0  0  0  0  0
  -88.2920   31.7512   -3.5237 C   0  0  0  0  0  0  0  0  0  0  0  0
  -88.9168   32.3611   -2.2784 C   0  0  0  0  0  0  0  0  0  0  0  0
  -85.4351   33.2134   -1.1059 C   0  0  0  0  0  0  0  0  0  0  0  0
  -86.6005   32.3887   -1.4035 N   0  0  0  0  0  0  0  0  0  0  0  0
  -86.8974   31.7085   -0.1429 C   0  0  0  0  0  0  0  0  0  0  0  0
  -86.3023   31.7078   -2.1293 H   0  0  0  0  0  0  0  0  0  0  0  0
  -90.1761   28.6478   -0.4849 N   0  0  0  0  0  0  0  0  0  0  0  0
  -89.5552   29.0441    0.2702 H   0  0  0  0  0  0  0  0  0  0  0  0
  -90.8954   27.5044    0.0435 C   0  0  0  0  0  0  0  0  0  0  0  0
  -90.6585   27.3917    1.4938 C   0  0  0  0  0  0  0  0  0  0  0  0
  -90.0255   26.2746    2.0246 C   0  0  0  0  0  0  0  0  0  0  0  0
  -89.8004   26.1569    3.3743 C   0  0  0  0  0  0  0  0  0  0  0  0
  -90.1979   27.1468    4.2448 C   0  0  0  0  0  0  0  0  0  0  0  0
  -89.8607   26.8914    5.9494 Cl  0  0  0  0  0  0  0  0  0  0  0  0
  -90.8182   28.2440    3.7379 C   0  0  0  0  0  0  0  0  0  0  0  0
  -91.0504   28.3702    2.3595 C   0  0  0  0  0  0  0  0  0  0  0  0
 19 20  1  0  0  0
 20 21  1  0  0  0
 20 14  1  0  0  0
 14 15  1  0  0  0
 15 16  1  0  0  0
 16 17  1  0  0  0
 17 18  1  0  0  0
 18 12  1  0  0  0
 12  1  1  0  0  0
  1  2  1  0  0  0
  2  3  1  0  0  0
  2  4  1  0  0  0
  4  5  1  0  0  0
  4  6  1  0  0  0
  6  7  1  0  0  0
  6  8  1  0  0  0
  8 23  1  0  0  0
 23 25  1  0  0  0
 25 26  1  0  0  0
 26 27  2  0  0  0
 27 28  1  0  0  0
 28 29  2  0  0  0
 29 30  1  0  0  0
 29 31  1  0  0  0
 31 32  2  0  0  0
 18 14  1  0  0  0
  8  1  1  0  0  0
 32 26  1  0  0  0
 20 22  1  0  0  0
 12 13  1  0  0  0
  3  9  1  0  0  0
  5 10  1  0  0  0
  7 11  1  0  0  0
 23 24  1  0  0  0
M  CHG 1  20   1
M  END
> <minimizedAffinity>
-6.84824

> <CNNscore>
0.2954402566

> <CNNaffinity>
5.0507645607

> <CNN_VS>
1.4921991825

> <CNNaffinity_variance>
0.3393185139

$$$$
[H]O[C@@]1([H])[C@@]([H])(N([H])[C@]2([H])C([H])([H])C([H])([H])C([H])([H])[C@]2([H])[N+]([H])(C([H])([H])[H])C([H])([H])[H])C([H])(N([H])C([H])([H])c2c([H])c([H])c(Cl)c([H])c2[H])[C@@]([H])(O[H])[C@]1([H])O[H]


 32 34  0  0  0  0  0  0  0  0999 V2000
  -88.8906   27.7146   -2.2311 C   0  0  0  0  0  0  0  0  0  0  0  0
  -90.1457   26.9467   -2.4014 C   0  0  0  0  0  0  0  0  0  0  0  0
  -91.2696   27.5210   -1.8355 O   0  0  0  0  0  0  0  0  0  0  0  0
  -89.8350   25.7564   -1.4238 C   0  0  0  0  0  0  0  0  0  0  0  0
  -88.7742   25.0143   -1.8892 O   0  0  0  0  0  0  0  0  0  0  0  0
  -89.4757   26.5973   -0.1916 C   0  0  0  0  0  0  0  0  0  0  0  0
  -90.6938   26.9993    0.3813 O   0  0  0  0  0  0  0  0  0  0  0  0
  -88.6778   27.7507   -0.7072 C   0  0  0  0  0  0  0  0  0  0  0  0
  -91.0390   28.4691   -1.5900 H   0  0  0  0  0  0  0  0  0  0  0  0
  -88.6181   25.1118   -2.8566 H   0  0  0  0  0  0  0  0  0  0  0  0
  -91.2340   26.1793    0.5095 H   0  0  0  0  0  0  0  0  0  0  0  0
  -88.8008   28.9594   -2.8142 N   0  0  0  0  0  0  0  0  0  0  0  0
  -88.8155   29.0522   -3.8405 H   0  0  0  0  0  0  0  0  0  0  0  0
  -87.9315   31.2798   -2.2822 C   0  0  0  0  0  0  0  0  0  0  0  0
  -88.2223   32.0353   -0.9633 C   0  0  0  0  0  0  0  0  0  0  0  0
  -89.6796   31.7960   -0.7417 C   0  0  0  0  0  0  0  0  0  0  0  0
  -90.1475   30.7944   -1.8045 C   0  0  0  0  0  0  0  0  0  0  0  0
  -88.8209   30.1044   -2.0827 C   0  0  0  0  0  0  0  0  0  0  0  0
  -87.7099   33.4652   -3.3294 C   0  0  0  0  0  0  0  0  0  0  0  0
  -88.2994   32.1332   -3.4029 N   0  0  0  0  0  0  0  0  0  0  0  0
  -87.7154   31.5420   -4.6068 C   0  0  0  0  0  0  0  0  0  0  0  0
  -89.3229   32.2697   -3.5175 H   0  0  0  0  0  0  0  0  0  0  0  0
  -87.2640   27.4615   -0.4725 N   0  0  0  0  0  0  0  0  0  0  0  0
  -86.6783   28.0863   -1.0884 H   0  0  0  0  0  0  0  0  0  0  0  0
  -86.9200   27.7059    0.9153 C   0  0  0  0  0  0  0  0  0  0  0  0
  -85.7852   28.6433    0.9913 C   0  0  0  0  0  0  0  0  0  0  0  0
  -85.7284   29.7572    0.1630 C   0  0  0  0  0  0  0  0  0  0  0  0
  -84.6756   30.6372    0.2230 C   0  0  0  0  0  0  0  0  0  0  0  0
  -83.6408   30.4398    1.1095 C   0  0  0  0  0  0  0  0  0  0  0  0
  -82.3461   31.6266    1.0999 Cl  0  0  0  0  0  0  0  0  0  0  0  0
  -83.6848   29.3539    1.9246 C   0  0  0  0  0  0  0  0  0  0  0  0
  -84.7582   28.4516    1.8683 C   0  0  0  0  0  0  0  0  0  0  0  0
 19 20  1  0  0  0
 20 21  1  0  0  0
 20 14  1  0  0  0
 14 15  1  0  0  0
 15 16  1  0  0  0
 16 17  1  0  0  0
 17 18  1  0  0  0
 18 12  1  0  0  0
 12  1  1  0  0  0
  1  2  1  0  0  0
  2  3  1  0  0  0
  2  4  1  0  0  0
  4  5  1  0  0  0
  4  6  1  0  0  0
  6  7  1  0  0  0
  6  8  1  0  0  0
  8 23  1  0  0  0
 23 25  1  0  0  0
 25 26  1  0  0  0
 26 27  2  0  0  0
 27 28  1  0  0  0
 28 29  2  0  0  0
 29 30  1  0  0  0
 29 31  1  0  0  0
 31 32  2  0  0  0
 18 14  1  0  0  0
  8  1  1  0  0  0
 32 26  1  0  0  0
 20 22  1  0  0  0
 12 13  1  0  0  0
  3  9  1  0  0  0
  5 10  1  0  0  0
  7 11  1  0  0  0
 23 24  1  0  0  0
M  CHG 1  20   1
M  END
> <minimizedAffinity>
-7.88019

> <CNNscore>
0.1764321923

> <CNNaffinity>
5.2604269981

> <CNN_VS>
0.9281086922

> <CNNaffinity_variance>
0.4172400832

$$$$
[H]O[C@@]1([H])[C@@]([H])(N([H])[C@]2([H])C([H])([H])C([H])([H])C([H])([H])[C@]2([H])[N+]([H])(C([H])([H])[H])C([H])([H])[H])C([H])(N([H])C([H])([H])c2c([H])c([H])c(Cl)c([H])c2[H])[C@@]([H])(O[H])[C@]1([H])O[H]


 32 34  0  0  0  0  0  0  0  0999 V2000
  -89.9387   28.1580   -0.9238 C   0  0  0  0  0  0  0  0  0  0  0  0
  -91.3812   27.9301   -0.6771 C   0  0  0  0  0  0  0  0  0  0  0  0
  -92.0614   29.0006   -0.1254 O   0  0  0  0  0  0  0  0  0  0  0  0
  -91.2649   26.9330    0.5317 C   0  0  0  0  0  0  0  0  0  0  0  0
  -90.6744   25.7566    0.1317 O   0  0  0  0  0  0  0  0  0  0  0  0
  -90.3444   27.7900    1.4108 C   0  0  0  0  0  0  0  0  0  0  0  0
  -91.1672   28.7445    2.0316 O   0  0  0  0  0  0  0  0  0  0  0  0
  -89.3543   28.4083    0.4779 C   0  0  0  0  0  0  0  0  0  0  0  0
  -91.4662   29.8091   -0.1916 H   0  0  0  0  0  0  0  0  0  0  0  0
  -90.7404   25.5910   -0.8369 H   0  0  0  0  0  0  0  0  0  0  0  0
  -91.9059   28.2470    2.4646 H   0  0  0  0  0  0  0  0  0  0  0  0
  -89.5754   29.1242   -1.8360 N   0  0  0  0  0  0  0  0  0  0  0  0
  -89.7560   28.9812   -2.8405 H   0  0  0  0  0  0  0  0  0  0  0  0
  -87.9096   31.0240   -2.0326 C   0  0  0  0  0  0  0  0  0  0  0  0
  -87.7144   32.1229   -0.9607 C   0  0  0  0  0  0  0  0  0  0  0  0
  -89.1121   32.4903   -0.5838 C   0  0  0  0  0  0  0  0  0  0  0  0
  -90.0522   31.5065   -1.2908 C   0  0  0  0  0  0  0  0  0  0  0  0
  -89.0946   30.3362   -1.4537 C   0  0  0  0  0  0  0  0  0  0  0  0
  -87.2820   32.8079   -3.5641 C   0  0  0  0  0  0  0  0  0  0  0  0
  -88.1490   31.6609   -3.3197 N   0  0  0  0  0  0  0  0  0  0  0  0
  -87.7784   30.6965   -4.3553 C   0  0  0  0  0  0  0  0  0  0  0  0
  -89.1236   31.9937   -3.4565 H   0  0  0  0  0  0  0  0  0  0  0  0
  -88.1145   27.6379    0.5610 N   0  0  0  0  0  0  0  0  0  0  0  0
  -87.4690   27.9402   -0.2165 H   0  0  0  0  0  0  0  0  0  0  0  0
  -87.4608   27.8650    1.8358 C   0  0  0  0  0  0  0  0  0  0  0  0
  -86.2691   28.7102    1.6428 C   0  0  0  0  0  0  0  0  0  0  0  0
  -85.8972   29.1330    0.3727 C   0  0  0  0  0  0  0  0  0  0  0  0
  -84.7879   29.9195    0.1795 C   0  0  0  0  0  0  0  0  0  0  0  0
  -84.0081   30.3130    1.2438 C   0  0  0  0  0  0  0  0  0  0  0  0
  -82.6130   31.3165    0.8812 Cl  0  0  0  0  0  0  0  0  0  0  0  0
  -84.3613   29.9058    2.4907 C   0  0  0  0  0  0  0  0  0  0  0  0
  -85.4940   29.1026    2.6945 C   0  0  0  0  0  0  0  0  0  0  0  0
 19 20  1  0  0  0
 20 21  1  0  0  0
 20 14  1  0  0  0
 14 15  1  0  0  0
 15 16  1  0  0  0
 16 17  1  0  0  0
 17 18  1  0  0  0
 18 12  1  0  0  0
 12  1  1  0  0  0
  1  2  1  0  0  0
  2  3  1  0  0  0
  2  4  1  0  0  0
  4  5  1  0  0  0
  4  6  1  0  0  0
  6  7  1  0  0  0
  6  8  1  0  0  0
  8 23  1  0  0  0
 23 25  1  0  0  0
 25 26  1  0  0  0
 26 27  2  0  0  0
 27 28  1  0  0  0
 28 29  2  0  0  0
 29 30  1  0  0  0
 29 31  1  0  0  0
 31 32  2  0  0  0
 18 14  1  0  0  0
  8  1  1  0  0  0
 32 26  1  0  0  0
 20 22  1  0  0  0
 12 13  1  0  0  0
  3  9  1  0  0  0
  5 10  1  0  0  0
  7 11  1  0  0  0
 23 24  1  0  0  0
M  CHG 1  20   1
M  END
> <minimizedAffinity>
-8.01355

> <CNNscore>
0.1566436440

> <CNNaffinity>
5.2812323570

> <CNN_VS>
0.8272714615

> <CNNaffinity_variance>
0.2341760099

$$$$
[H]O[C@@]1([H])[C@@]([H])(N([H])[C@]2([H])C([H])([H])C([H])([H])C([H])([H])[C@]2([H])[N+]([H])(C([H])([H])[H])C([H])([H])[H])C([H])(N([H])C([H])([H])c2c([H])c([H])c(Cl)c([H])c2[H])[C@@]([H])(O[H])[C@]1([H])O[H]


 32 34  0  0  0  0  0  0  0  0999 V2000
  -89.5887   27.5185    0.5415 C   0  0  0  0  0  0  0  0  0  0  0  0
  -90.7258   26.9867    1.3277 C   0  0  0  0  0  0  0  0  0  0  0  0
  -91.2049   27.8285    2.3150 O   0  0  0  0  0  0  0  0  0  0  0  0
  -89.9585   25.8893    2.1499 C   0  0  0  0  0  0  0  0  0  0  0  0
  -89.4777   24.9083    1.3139 O   0  0  0  0  0  0  0  0  0  0  0  0
  -88.8491   26.7929    2.7042 C   0  0  0  0  0  0  0  0  0  0  0  0
  -89.4093   27.4857    3.7903 O   0  0  0  0  0  0  0  0  0  0  0  0
  -88.4685   27.7019    1.5808 C   0  0  0  0  0  0  0  0  0  0  0  0
  -90.8044   28.7389    2.1628 H   0  0  0  0  0  0  0  0  0  0  0  0
  -89.9539   24.8541    0.4536 H   0  0  0  0  0  0  0  0  0  0  0  0
  -89.8079   26.8048    4.3889 H   0  0  0  0  0  0  0  0  0  0  0  0
  -89.7942   28.6420   -0.2286 N   0  0  0  0  0  0  0  0  0  0  0  0
  -89.2602   29.5031   -0.0400 H   0  0  0  0  0  0  0  0  0  0  0  0
  -90.9696   29.8160   -2.1424 C   0  0  0  0  0  0  0  0  0  0  0  0
  -92.1169   29.1910   -2.9719 C   0  0  0  0  0  0  0  0  0  0  0  0
  -91.6397   27.7992   -3.2282 C   0  0  0  0  0  0  0  0  0  0  0  0
  -90.3522   27.5988   -2.4196 C   0  0  0  0  0  0  0  0  0  0  0  0
  -90.5930   28.6299   -1.3278 C   0  0  0  0  0  0  0  0  0  0  0  0
  -90.4564   31.0099   -4.1999 C   0  0  0  0  0  0  0  0  0  0  0  0
  -89.9315   30.2795   -3.0519 N   0  0  0  0  0  0  0  0  0  0  0  0
  -89.1304   31.2659   -2.3273 C   0  0  0  0  0  0  0  0  0  0  0  0
  -89.3298   29.5234   -3.4336 H   0  0  0  0  0  0  0  0  0  0  0  0
  -87.2433   27.1820    0.9757 N   0  0  0  0  0  0  0  0  0  0  0  0
  -86.9717   27.7993    0.1645 H   0  0  0  0  0  0  0  0  0  0  0  0
  -86.1643   27.1700    1.9451 C   0  0  0  0  0  0  0  0  0  0  0  0
  -85.2102   28.2522    1.6443 C   0  0  0  0  0  0  0  0  0  0  0  0
  -85.4993   29.2037    0.6741 C   0  0  0  0  0  0  0  0  0  0  0  0
  -84.6178   30.2161    0.3833 C   0  0  0  0  0  0  0  0  0  0  0  0
  -83.4160   30.3175    1.0476 C   0  0  0  0  0  0  0  0  0  0  0  0
  -82.3654   31.6500    0.5947 Cl  0  0  0  0  0  0  0  0  0  0  0  0
  -83.1218   29.3929    1.9984 C   0  0  0  0  0  0  0  0  0  0  0  0
  -84.0187   28.3566    2.3002 C   0  0  0  0  0  0  0  0  0  0  0  0
 19 20  1  0  0  0
 20 21  1  0  0  0
 20 14  1  0  0  0
 14 15  1  0  0  0
 15 16  1  0  0  0
 16 17  1  0  0  0
 17 18  1  0  0  0
 18 12  1  0  0  0
 12  1  1  0  0  0
  1  2  1  0  0  0
  2  3  1  0  0  0
  2  4  1  0  0  0
  4  5  1  0  0  0
  4  6  1  0  0  0
  6  7  1  0  0  0
  6  8  1  0  0  0
  8 23  1  0  0  0
 23 25  1  0  0  0
 25 26  1  0  0  0
 26 27  2  0  0  0
 27 28  1  0  0  0
 28 29  2  0  0  0
 29 30  1  0  0  0
 29 31  1  0  0  0
 31 32  2  0  0  0
 18 14  1  0  0  0
  8  1  1  0  0  0
 32 26  1  0  0  0
 20 22  1  0  0  0
 12 13  1  0  0  0
  3  9  1  0  0  0
  5 10  1  0  0  0
  7 11  1  0  0  0
 23 24  1  0  0  0
M  CHG 1  20   1
M  END
> <minimizedAffinity>
-7.69753

> <CNNscore>
0.1562535018

> <CNNaffinity>
4.9998521805

> <CNN_VS>
0.7812443972

> <CNNaffinity_variance>
0.2947286665

$$$$
[H]O[C@@]1([H])[C@@]([H])(N([H])[C@]2([H])C([H])([H])C([H])([H])C([H])([H])[C@]2([H])[N+]([H])(C([H])([H])[H])C([H])([H])[H])C([H])(N([H])C([H])([H])c2c([H])c([H])c(Cl)c([H])c2[H])[C@@]([H])(O[H])[C@]1([H])O[H]


 32 34  0  0  0  0  0  0  0  0999 V2000
  -90.9000   29.0597   -2.7440 C   0  0  0  0  0  0  0  0  0  0  0  0
  -91.8249   27.9229   -2.9588 C   0  0  0  0  0  0  0  0  0  0  0  0
  -91.8060   27.3797   -4.2307 O   0  0  0  0  0  0  0  0  0  0  0  0
  -93.1844   28.7105   -2.9383 C   0  0  0  0  0  0  0  0  0  0  0  0
  -93.4068   29.2567   -1.6954 O   0  0  0  0  0  0  0  0  0  0  0  0
  -92.8219   29.7641   -3.9933 C   0  0  0  0  0  0  0  0  0  0  0  0
  -92.9820   29.1431   -5.2432 O   0  0  0  0  0  0  0  0  0  0  0  0
  -91.4018   30.1398   -3.7189 C   0  0  0  0  0  0  0  0  0  0  0  0
  -91.0001   27.7462   -4.7087 H   0  0  0  0  0  0  0  0  0  0  0  0
  -92.9099   28.8091   -0.9726 H   0  0  0  0  0  0  0  0  0  0  0  0
  -93.8934   28.7556   -5.2554 H   0  0  0  0  0  0  0  0  0  0  0  0
  -89.5458   28.8306   -2.8492 N   0  0  0  0  0  0  0  0  0  0  0  0
  -89.1119   28.7116   -3.7764 H   0  0  0  0  0  0  0  0  0  0  0  0
  -88.7458   27.9537   -0.6101 C   0  0  0  0  0  0  0  0  0  0  0  0
  -87.8356   28.7463    0.3586 C   0  0  0  0  0  0  0  0  0  0  0  0
  -86.7997   29.3334   -0.5428 C   0  0  0  0  0  0  0  0  0  0  0  0
  -87.2186   29.0260   -1.9856 C   0  0  0  0  0  0  0  0  0  0  0  0
  -88.7175   28.8804   -1.7732 C   0  0  0  0  0  0  0  0  0  0  0  0
  -87.6298   26.0146    0.3473 C   0  0  0  0  0  0  0  0  0  0  0  0
  -88.1443   26.6515   -0.8596 N   0  0  0  0  0  0  0  0  0  0  0  0
  -89.2124   25.7616   -1.3145 C   0  0  0  0  0  0  0  0  0  0  0  0
  -87.3608   26.6669   -1.5417 H   0  0  0  0  0  0  0  0  0  0  0  0
  -91.4040   31.4032   -2.9831 N   0  0  0  0  0  0  0  0  0  0  0  0
  -91.0556   31.2306   -2.0025 H   0  0  0  0  0  0  0  0  0  0  0  0
  -90.5376   32.3691   -3.6315 C   0  0  0  0  0  0  0  0  0  0  0  0
  -89.3112   32.5540   -2.8353 C   0  0  0  0  0  0  0  0  0  0  0  0
  -89.3568   32.5337   -1.4469 C   0  0  0  0  0  0  0  0  0  0  0  0
  -88.2214   32.7064   -0.6937 C   0  0  0  0  0  0  0  0  0  0  0  0
  -86.9993   32.9063   -1.2955 C   0  0  0  0  0  0  0  0  0  0  0  0
  -85.6144   33.1169   -0.2361 Cl  0  0  0  0  0  0  0  0  0  0  0  0
  -86.9418   32.9285   -2.6526 C   0  0  0  0  0  0  0  0  0  0  0  0
  -88.0985   32.7519   -3.4276 C   0  0  0  0  0  0  0  0  0  0  0  0
 19 20  1  0  0  0
 20 21  1  0  0  0
 20 14  1  0  0  0
 14 15  1  0  0  0
 15 16  1  0  0  0
 16 17  1  0  0  0
 17 18  1  0  0  0
 18 12  1  0  0  0
 12  1  1  0  0  0
  1  2  1  0  0  0
  2  3  1  0  0  0
  2  4  1  0  0  0
  4  5  1  0  0  0
  4  6  1  0  0  0
  6  7  1  0  0  0
  6  8  1  0  0  0
  8 23  1  0  0  0
 23 25  1  0  0  0
 25 26  1  0  0  0
 26 27  2  0  0  0
 27 28  1  0  0  0
 28 29  2  0  0  0
 29 30  1  0  0  0
 29 31  1  0  0  0
 31 32  2  0  0  0
 18 14  1  0  0  0
  8  1  1  0  0  0
 32 26  1  0  0  0
 20 22  1  0  0  0
 12 13  1  0  0  0
  3  9  1  0  0  0
  5 10  1  0  0  0
  7 11  1  0  0  0
 23 24  1  0  0  0
M  CHG 1  20   1
M  END
> <minimizedAffinity>
-6.63507

> <CNNscore>
0.1553507894

> <CNNaffinity>
4.7517099380

> <CNN_VS>
0.7381818891

> <CNNaffinity_variance>
0.5755491257

$$$$
[H]O[C@@]1([H])[C@@]([H])(N([H])[C@]2([H])C([H])([H])C([H])([H])C([H])([H])[C@]2([H])[N+]([H])(C([H])([H])[H])C([H])([H])[H])C([H])(N([H])C([H])([H])c2c([H])c([H])c(Cl)c([H])c2[H])[C@@]([H])(O[H])[C@]1([H])O[H]


 32 34  0  0  0  0  0  0  0  0999 V2000
  -90.2381   30.2932   -2.4026 C   0  0  0  0  0  0  0  0  0  0  0  0
  -91.1494   29.3203   -3.0483 C   0  0  0  0  0  0  0  0  0  0  0  0
  -92.4222   29.2579   -2.5106 O   0  0  0  0  0  0  0  0  0  0  0  0
  -90.4890   27.9914   -2.5317 C   0  0  0  0  0  0  0  0  0  0  0  0
  -89.2222   27.8493   -3.0488 O   0  0  0  0  0  0  0  0  0  0  0  0
  -90.4844   28.3375   -1.0368 C   0  0  0  0  0  0  0  0  0  0  0  0
  -91.7873   28.0948   -0.5709 O   0  0  0  0  0  0  0  0  0  0  0  0
  -90.1081   29.7815   -0.9569 C   0  0  0  0  0  0  0  0  0  0  0  0
  -92.5376   30.0514   -1.9029 H   0  0  0  0  0  0  0  0  0  0  0  0
  -89.0723   28.3655   -3.8740 H   0  0  0  0  0  0  0  0  0  0  0  0
  -92.0205   27.1712   -0.8418 H   0  0  0  0  0  0  0  0  0  0  0  0
  -90.5556   31.6319   -2.4704 N   0  0  0  0  0  0  0  0  0  0  0  0
  -91.2061   32.0446   -1.7859 H   0  0  0  0  0  0  0  0  0  0  0  0
  -90.4799   32.9177   -4.6531 C   0  0  0  0  0  0  0  0  0  0  0  0
  -89.1965   33.5460   -5.2473 C   0  0  0  0  0  0  0  0  0  0  0  0
  -88.5466   34.1878   -4.0658 C   0  0  0  0  0  0  0  0  0  0  0  0
  -89.3479   33.7806   -2.8232 C   0  0  0  0  0  0  0  0  0  0  0  0
  -89.9413   32.4783   -3.3380 C   0  0  0  0  0  0  0  0  0  0  0  0
  -91.5069   34.8530   -5.7121 C   0  0  0  0  0  0  0  0  0  0  0  0
  -91.5104   33.9429   -4.5725 N   0  0  0  0  0  0  0  0  0  0  0  0
  -92.8036   33.2637   -4.6522 C   0  0  0  0  0  0  0  0  0  0  0  0
  -91.4567   34.5362   -3.7213 H   0  0  0  0  0  0  0  0  0  0  0  0
  -88.6902   29.8591   -0.6086 N   0  0  0  0  0  0  0  0  0  0  0  0
  -88.1188   29.4679   -1.4043 H   0  0  0  0  0  0  0  0  0  0  0  0
  -88.2997   31.2366   -0.3762 C   0  0  0  0  0  0  0  0  0  0  0  0
  -86.8431   31.3145   -0.1660 C   0  0  0  0  0  0  0  0  0  0  0  0
  -86.1487   32.4866   -0.4380 C   0  0  0  0  0  0  0  0  0  0  0  0
  -84.7910   32.5714   -0.2479 C   0  0  0  0  0  0  0  0  0  0  0  0
  -84.0753   31.4919    0.2192 C   0  0  0  0  0  0  0  0  0  0  0  0
  -82.3449   31.7115    0.4236 Cl  0  0  0  0  0  0  0  0  0  0  0  0
  -84.7431   30.3399    0.4885 C   0  0  0  0  0  0  0  0  0  0  0  0
  -86.1303   30.2475    0.2968 C   0  0  0  0  0  0  0  0  0  0  0  0
 19 20  1  0  0  0
 20 21  1  0  0  0
 20 14  1  0  0  0
 14 15  1  0  0  0
 15 16  1  0  0  0
 16 17  1  0  0  0
 17 18  1  0  0  0
 18 12  1  0  0  0
 12  1  1  0  0  0
  1  2  1  0  0  0
  2  3  1  0  0  0
  2  4  1  0  0  0
  4  5  1  0  0  0
  4  6  1  0  0  0
  6  7  1  0  0  0
  6  8  1  0  0  0
  8 23  1  0  0  0
 23 25  1  0  0  0
 25 26  1  0  0  0
 26 27  2  0  0  0
 27 28  1  0  0  0
 28 29  2  0  0  0
 29 30  1  0  0  0
 29 31  1  0  0  0
 31 32  2  0  0  0
 18 14  1  0  0  0
  8  1  1  0  0  0
 32 26  1  0  0  0
 20 22  1  0  0  0
 12 13  1  0  0  0
  3  9  1  0  0  0
  5 10  1  0  0  0
  7 11  1  0  0  0
 23 24  1  0  0  0
M  CHG 1  20   1
M  END
> <minimizedAffinity>
-6.94174

> <CNNscore>
0.1534401029

> <CNNaffinity>
4.9037580490

> <CNN_VS>
0.7524331212

> <CNNaffinity_variance>
0.2462374717

$$$$
[H]O[C@@]1([H])[C@@]([H])(N([H])[C@]2([H])C([H])([H])C([H])([H])C([H])([H])[C@]2([H])[N+]([H])(C([H])([H])[H])C([H])([H])[H])C([H])(N([H])C([H])([H])c2c([H])c([H])c(Cl)c([H])c2[H])[C@@]([H])(O[H])[C@]1([H])O[H]


 32 34  0  0  0  0  0  0  0  0999 V2000
  -90.0632   26.4472   -1.0526 C   0  0  0  0  0  0  0  0  0  0  0  0
  -90.6500   25.7904    0.1383 C   0  0  0  0  0  0  0  0  0  0  0  0
  -91.1680   26.6497    1.0903 O   0  0  0  0  0  0  0  0  0  0  0  0
  -89.3241   25.2844    0.8128 C   0  0  0  0  0  0  0  0  0  0  0  0
  -88.7102   24.3408    0.0220 O   0  0  0  0  0  0  0  0  0  0  0  0
  -88.5793   26.6259    0.8227 C   0  0  0  0  0  0  0  0  0  0  0  0
  -89.0833   27.3497    1.9161 O   0  0  0  0  0  0  0  0  0  0  0  0
  -88.8948   27.2737   -0.4865 C   0  0  0  0  0  0  0  0  0  0  0  0
  -91.2248   27.5658    0.6781 H   0  0  0  0  0  0  0  0  0  0  0  0
  -89.3208   23.8988   -0.6117 H   0  0  0  0  0  0  0  0  0  0  0  0
  -89.0071   26.7606    2.7086 H   0  0  0  0  0  0  0  0  0  0  0  0
  -90.8931   27.1827   -1.8698 N   0  0  0  0  0  0  0  0  0  0  0  0
  -91.7286   26.7460   -2.2862 H   0  0  0  0  0  0  0  0  0  0  0  0
  -90.8422   29.2373   -3.3525 C   0  0  0  0  0  0  0  0  0  0  0  0
  -90.2166   30.5913   -2.9399 C   0  0  0  0  0  0  0  0  0  0  0  0
  -90.7009   30.7838   -1.5404 C   0  0  0  0  0  0  0  0  0  0  0  0
  -91.4254   29.4979   -1.1241 C   0  0  0  0  0  0  0  0  0  0  0  0
  -90.7278   28.5185   -2.0553 C   0  0  0  0  0  0  0  0  0  0  0  0
  -92.3249   30.5594   -4.7580 C   0  0  0  0  0  0  0  0  0  0  0  0
  -92.2091   29.4681   -3.7976 N   0  0  0  0  0  0  0  0  0  0  0  0
  -92.6277   28.2808   -4.5426 C   0  0  0  0  0  0  0  0  0  0  0  0
  -92.8779   29.6779   -3.0308 H   0  0  0  0  0  0  0  0  0  0  0  0
  -87.7571   27.0616   -1.3800 N   0  0  0  0  0  0  0  0  0  0  0  0
  -88.0412   26.3943   -2.1460 H   0  0  0  0  0  0  0  0  0  0  0  0
  -87.3387   28.3166   -1.9749 C   0  0  0  0  0  0  0  0  0  0  0  0
  -86.7005   29.1657   -0.9533 C   0  0  0  0  0  0  0  0  0  0  0  0
  -85.7132   28.6536   -0.1208 C   0  0  0  0  0  0  0  0  0  0  0  0
  -85.1120   29.4341    0.8362 C   0  0  0  0  0  0  0  0  0  0  0  0
  -85.4725   30.7528    0.9996 C   0  0  0  0  0  0  0  0  0  0  0  0
  -84.6398   31.6568    2.2541 Cl  0  0  0  0  0  0  0  0  0  0  0  0
  -86.4371   31.2652    0.1917 C   0  0  0  0  0  0  0  0  0  0  0  0
  -87.0545   30.4727   -0.7883 C   0  0  0  0  0  0  0  0  0  0  0  0
 19 20  1  0  0  0
 20 21  1  0  0  0
 20 14  1  0  0  0
 14 15  1  0  0  0
 15 16  1  0  0  0
 16 17  1  0  0  0
 17 18  1  0  0  0
 18 12  1  0  0  0
 12  1  1  0  0  0
  1  2  1  0  0  0
  2  3  1  0  0  0
  2  4  1  0  0  0
  4  5  1  0  0  0
  4  6  1  0  0  0
  6  7  1  0  0  0
  6  8  1  0  0  0
  8 23  1  0  0  0
 23 25  1  0  0  0
 25 26  1  0  0  0
 26 27  2  0  0  0
 27 28  1  0  0  0
 28 29  2  0  0  0
 29 30  1  0  0  0
 29 31  1  0  0  0
 31 32  2  0  0  0
 18 14  1  0  0  0
  8  1  1  0  0  0
 32 26  1  0  0  0
 20 22  1  0  0  0
 12 13  1  0  0  0
  3  9  1  0  0  0
  5 10  1  0  0  0
  7 11  1  0  0  0
 23 24  1  0  0  0
M  CHG 1  20   1
M  END
> <minimizedAffinity>
-6.55188

> <CNNscore>
0.1501993090

> <CNNaffinity>
4.7907395363

> <CNN_VS>
0.7195657492

> <CNNaffinity_variance>
0.4041730762

$$$$
[H]O[C@@]1([H])[C@@]([H])(N([H])[C@]2([H])C([H])([H])C([H])([H])C([H])([H])[C@]2([H])[N+]([H])(C([H])([H])[H])C([H])([H])[H])C([H])(N([H])C([H])([H])c2c([H])c([H])c(Cl)c([H])c2[H])[C@@]([H])(O[H])[C@]1([H])O[H]


 32 34  0  0  0  0  0  0  0  0999 V2000
  -90.0866   26.8305    0.1808 C   0  0  0  0  0  0  0  0  0  0  0  0
  -90.0330   25.7912    1.2347 C   0  0  0  0  0  0  0  0  0  0  0  0
  -90.5919   26.1518    2.4474 O   0  0  0  0  0  0  0  0  0  0  0  0
  -88.4916   25.8332    1.5370 C   0  0  0  0  0  0  0  0  0  0  0  0
  -87.7734   25.4151    0.4408 O   0  0  0  0  0  0  0  0  0  0  0  0
  -88.3761   27.3437    1.7813 C   0  0  0  0  0  0  0  0  0  0  0  0
  -88.8319   27.5682    3.0910 O   0  0  0  0  0  0  0  0  0  0  0  0
  -89.2490   27.9878    0.7535 C   0  0  0  0  0  0  0  0  0  0  0  0
  -91.1167   26.9981    2.3036 H   0  0  0  0  0  0  0  0  0  0  0  0
  -88.2932   24.8578   -0.1829 H   0  0  0  0  0  0  0  0  0  0  0  0
  -88.3249   26.9538    3.6795 H   0  0  0  0  0  0  0  0  0  0  0  0
  -91.3212   27.2373   -0.2750 N   0  0  0  0  0  0  0  0  0  0  0  0
  -92.0243   27.5968    0.3872 H   0  0  0  0  0  0  0  0  0  0  0  0
  -92.2719   26.2384   -2.4013 C   0  0  0  0  0  0  0  0  0  0  0  0
  -91.9960   26.7914   -3.8201 C   0  0  0  0  0  0  0  0  0  0  0  0
  -92.1374   28.2682   -3.6491 C   0  0  0  0  0  0  0  0  0  0  0  0
  -92.3107   28.5427   -2.1503 C   0  0  0  0  0  0  0  0  0  0  0  0
  -91.6170   27.3064   -1.5994 C   0  0  0  0  0  0  0  0  0  0  0  0
  -94.4102   25.6032   -3.3741 C   0  0  0  0  0  0  0  0  0  0  0  0
  -93.7115   26.1350   -2.2096 N   0  0  0  0  0  0  0  0  0  0  0  0
  -93.9380   25.1392   -1.1622 C   0  0  0  0  0  0  0  0  0  0  0  0
  -94.1760   27.0333   -1.9719 H   0  0  0  0  0  0  0  0  0  0  0  0
  -88.3921   28.4644   -0.3309 N   0  0  0  0  0  0  0  0  0  0  0  0
  -88.8004   28.1551   -1.2531 H   0  0  0  0  0  0  0  0  0  0  0  0
  -88.3072   29.9123   -0.3112 C   0  0  0  0  0  0  0  0  0  0  0  0
  -86.9098   30.3281   -0.0955 C   0  0  0  0  0  0  0  0  0  0  0  0
  -86.5533   31.6699   -0.1440 C   0  0  0  0  0  0  0  0  0  0  0  0
  -85.2543   32.0701    0.0537 C   0  0  0  0  0  0  0  0  0  0  0  0
  -84.2630   31.1486    0.3063 C   0  0  0  0  0  0  0  0  0  0  0  0
  -82.6378   31.7712    0.5423 Cl  0  0  0  0  0  0  0  0  0  0  0  0
  -84.5991   29.8332    0.3561 C   0  0  0  0  0  0  0  0  0  0  0  0
  -85.9248   29.4184    0.1555 C   0  0  0  0  0  0  0  0  0  0  0  0
 19 20  1  0  0  0
 20 21  1  0  0  0
 20 14  1  0  0  0
 14 15  1  0  0  0
 15 16  1  0  0  0
 16 17  1  0  0  0
 17 18  1  0  0  0
 18 12  1  0  0  0
 12  1  1  0  0  0
  1  2  1  0  0  0
  2  3  1  0  0  0
  2  4  1  0  0  0
  4  5  1  0  0  0
  4  6  1  0  0  0
  6  7  1  0  0  0
  6  8  1  0  0  0
  8 23  1  0  0  0
 23 25  1  0  0  0
 25 26  1  0  0  0
 26 27  2  0  0  0
 27 28  1  0  0  0
 28 29  2  0  0  0
 29 30  1  0  0  0
 29 31  1  0  0  0
 31 32  2  0  0  0
 18 14  1  0  0  0
  8  1  1  0  0  0
 32 26  1  0  0  0
 20 22  1  0  0  0
 12 13  1  0  0  0
  3  9  1  0  0  0
  5 10  1  0  0  0
  7 11  1  0  0  0
 23 24  1  0  0  0
M  CHG 1  20   1
M  END
> <minimizedAffinity>
-6.88012

> <CNNscore>
0.1353902668

> <CNNaffinity>
4.7397880554

> <CNN_VS>
0.6417211890

> <CNNaffinity_variance>
0.4564637542

$$$$
[H]N=C(N([H])[H])N([H])C([H])([H])C([H])([H])C([H])([H])[C@@]([H])(C([H])=O)N([H])C(=O)[C@@]1([H])N(C(=O)[C@@]([H])(N([H])C(=O)[C@@]([H])(N([H])[H])C([H])(C([H])([H])[H])C([H])([H])[H])C([H])([H])C([H])([H])C(=O)O[H])C([H])([H])C([H])([H])C1([H])[H]


 43 43  0  0  0  0  0  0  0  0999 V2000
  -89.2845   26.2239    1.3415 C   0  0  0  0  0  0  0  0  0  0  0  0
  -88.0981   25.8542    1.5409 O   0  0  0  0  0  0  0  0  0  0  0  0
  -89.6503   27.3133    0.5423 N   0  0  0  0  0  0  0  0  0  0  0  0
  -91.0247   27.6789    0.2535 C   0  0  0  0  0  0  0  0  0  0  0  0
  -90.9712   29.1650    0.3606 C   0  0  0  0  0  0  0  0  0  0  0  0
  -89.5513   29.5750    0.1211 C   0  0  0  0  0  0  0  0  0  0  0  0
  -88.8553   28.2534   -0.1720 C   0  0  0  0  0  0  0  0  0  0  0  0
  -87.4348   28.3339    0.1228 C   0  0  0  0  0  0  0  0  0  0  0  0
  -86.6158   28.2274   -0.8227 O   0  0  0  0  0  0  0  0  0  0  0  0
  -86.9081   28.5348    1.4192 N   0  0  0  0  0  0  0  0  0  0  0  0
  -87.5361   28.6411    2.2725 H   0  0  0  0  0  0  0  0  0  0  0  0
  -85.5031   28.6170    1.7044 C   0  0  0  0  0  0  0  0  0  0  0  0
  -84.8819   27.3203    2.0455 C   0  0  0  0  0  0  0  0  0  0  0  0
  -83.9132   27.1693    2.7656 O   0  0  0  0  0  0  0  0  0  0  0  0
  -85.2629   29.5041    2.9577 C   0  0  0  0  0  0  0  0  0  0  0  0
  -84.9539   30.8951    2.5375 C   0  0  0  0  0  0  0  0  0  0  0  0
  -84.1855   31.0548    1.2651 C   0  0  0  0  0  0  0  0  0  0  0  0
  -84.7265   31.9609    0.2977 N   0  0  0  0  0  0  0  0  0  0  0  0
  -85.7792   31.9725    0.1285 H   0  0  0  0  0  0  0  0  0  0  0  0
  -83.9939   32.8818   -0.4935 C   0  0  0  0  0  0  0  0  0  0  0  0
  -84.5554   33.5046   -1.6509 N   0  0  0  0  0  0  0  0  0  0  0  0
  -82.7896   33.1739   -0.1551 N   0  0  0  0  0  0  0  0  0  0  0  0
  -84.9725   34.4415   -1.6185 H   0  0  0  0  0  0  0  0  0  0  0  0
  -84.5441   32.9956   -2.5594 H   0  0  0  0  0  0  0  0  0  0  0  0
  -82.2168   33.8423   -0.7036 H   0  0  0  0  0  0  0  0  0  0  0  0
  -90.2905   25.3489    2.0658 C   0  0  0  0  0  0  0  0  0  0  0  0
  -90.9247   22.9140    1.7065 C   0  0  0  0  0  0  0  0  0  0  0  0
  -92.1043   23.2306    2.0994 O   0  0  0  0  0  0  0  0  0  0  0  0
  -89.9777   23.9471    1.6774 N   0  0  0  0  0  0  0  0  0  0  0  0
  -89.0108   23.7702    1.3842 H   0  0  0  0  0  0  0  0  0  0  0  0
  -90.6729   21.5220    1.3272 C   0  0  0  0  0  0  0  0  0  0  0  0
  -89.2512   21.4150    0.9525 N   0  0  0  0  0  0  0  0  0  0  0  0
  -88.7277   21.5618    1.8662 H   0  0  0  0  0  0  0  0  0  0  0  0
  -88.9935   22.1675    0.2726 H   0  0  0  0  0  0  0  0  0  0  0  0
  -89.4268   20.6799    3.2576 C   0  0  0  0  0  0  0  0  0  0  0  0
  -90.7792   20.5856    2.5448 C   0  0  0  0  0  0  0  0  0  0  0  0
  -91.0359   19.1626    2.1529 C   0  0  0  0  0  0  0  0  0  0  0  0
  -89.9926   25.3496    3.5505 C   0  0  0  0  0  0  0  0  0  0  0  0
  -90.8710   26.1621    4.4108 C   0  0  0  0  0  0  0  0  0  0  0  0
  -90.6786   27.6124    4.3205 C   0  0  0  0  0  0  0  0  0  0  0  0
  -91.5382   28.4369    3.6314 O   0  0  0  0  0  0  0  0  0  0  0  0
  -89.6847   28.1370    4.8971 O   0  0  0  0  0  0  0  0  0  0  0  0
  -91.3109   29.3036    3.1786 H   0  0  0  0  0  0  0  0  0  0  0  0
 35 36  1  0  0  0
 36 37  1  0  0  0
 36 31  1  0  0  0
 31 32  1  0  0  0
 31 27  1  0  0  0
 27 28  2  0  0  0
 27 29  1  0  0  0
 29 26  1  0  0  0
 26 38  1  0  0  0
 38 39  1  0  0  0
 39 40  1  0  0  0
 40 41  1  0  0  0
 40 42  2  0  0  0
 26  1  1  0  0  0
  1  2  2  0  0  0
  1  3  1  0  0  0
  3  4  1  0  0  0
  4  5  1  0  0  0
  5  6  1  0  0  0
  6  7  1  0  0  0
  7  8  1  0  0  0
  8  9  2  0  0  0
  8 10  1  0  0  0
 10 12  1  0  0  0
 12 15  1  0  0  0
 15 16  1  0  0  0
 16 17  1  0  0  0
 17 18  1  0  0  0
 18 20  1  0  0  0
 20 21  1  0  0  0
 20 22  2  0  0  0
 12 13  1  0  0  0
 13 14  2  0  0  0
  7  3  1  0  0  0
 32 33  1  0  0  0
 32 34  1  0  0  0
 29 30  1  0  0  0
 41 43  1  0  0  0
 10 11  1  0  0  0
 18 19  1  0  0  0
 21 23  1  0  0  0
 21 24  1  0  0  0
 22 25  1  0  0  0
M  END
> <minimizedAffinity>
-8.15215

> <CNNscore>
0.1732327789

> <CNNaffinity>
6.1556291580

> <CNN_VS>
1.0663567781

> <CNNaffinity_variance>
0.2995158732

$$$$
[H]N=C(N([H])[H])N([H])C([H])([H])C([H])([H])C([H])([H])[C@@]([H])(C([H])=O)N([H])C(=O)[C@@]1([H])N(C(=O)[C@@]([H])(N([H])C(=O)[C@@]([H])(N([H])[H])C([H])(C([H])([H])[H])C([H])([H])[H])C([H])([H])C([H])([H])C(=O)O[H])C([H])([H])C([H])([H])C1([H])[H]


 43 43  0  0  0  0  0  0  0  0999 V2000
  -88.2025   27.9100    0.0241 C   0  0  0  0  0  0  0  0  0  0  0  0
  -88.2240   29.1676   -0.0218 O   0  0  0  0  0  0  0  0  0  0  0  0
  -88.6643   27.0728   -0.9981 N   0  0  0  0  0  0  0  0  0  0  0  0
  -88.5580   25.6258   -0.9681 C   0  0  0  0  0  0  0  0  0  0  0  0
  -89.8833   25.2138   -1.5128 C   0  0  0  0  0  0  0  0  0  0  0  0
  -90.3998   26.3560   -2.3312 C   0  0  0  0  0  0  0  0  0  0  0  0
  -89.2739   27.3770   -2.2479 C   0  0  0  0  0  0  0  0  0  0  0  0
  -89.7714   28.7235   -2.4730 C   0  0  0  0  0  0  0  0  0  0  0  0
  -90.9781   28.9691   -2.2286 O   0  0  0  0  0  0  0  0  0  0  0  0
  -88.9743   29.7903   -2.9474 N   0  0  0  0  0  0  0  0  0  0  0  0
  -87.9409   29.6653   -3.1717 H   0  0  0  0  0  0  0  0  0  0  0  0
  -89.4706   31.1202   -3.1649 C   0  0  0  0  0  0  0  0  0  0  0  0
  -89.1436   31.6738   -4.4954 C   0  0  0  0  0  0  0  0  0  0  0  0
  -88.4034   31.1588   -5.3118 O   0  0  0  0  0  0  0  0  0  0  0  0
  -88.8124   32.1073   -2.1611 C   0  0  0  0  0  0  0  0  0  0  0  0
  -87.3332   31.9992   -2.2461 C   0  0  0  0  0  0  0  0  0  0  0  0
  -86.5563   33.2566   -2.0217 C   0  0  0  0  0  0  0  0  0  0  0  0
  -86.2693   34.0492   -3.1790 N   0  0  0  0  0  0  0  0  0  0  0  0
  -85.2754   34.0642   -3.5648 H   0  0  0  0  0  0  0  0  0  0  0  0
  -87.1919   34.8490   -3.8999 C   0  0  0  0  0  0  0  0  0  0  0  0
  -87.7579   36.0403   -3.3490 N   0  0  0  0  0  0  0  0  0  0  0  0
  -87.5236   34.4982   -5.0902 N   0  0  0  0  0  0  0  0  0  0  0  0
  -87.3725   36.9702   -3.5476 H   0  0  0  0  0  0  0  0  0  0  0  0
  -88.5882   35.9682   -2.7245 H   0  0  0  0  0  0  0  0  0  0  0  0
  -88.1942   35.0528   -5.6545 H   0  0  0  0  0  0  0  0  0  0  0  0
  -87.6108   27.3906    1.3211 C   0  0  0  0  0  0  0  0  0  0  0  0
  -85.3162   28.0463    2.1958 C   0  0  0  0  0  0  0  0  0  0  0  0
  -85.0439   26.7931    2.2335 O   0  0  0  0  0  0  0  0  0  0  0  0
  -86.5979   28.3938    1.7470 N   0  0  0  0  0  0  0  0  0  0  0  0
  -86.8933   29.3749    1.6982 H   0  0  0  0  0  0  0  0  0  0  0  0
  -84.2802   28.9918    2.6175 C   0  0  0  0  0  0  0  0  0  0  0  0
  -82.9730   28.3624    2.3565 N   0  0  0  0  0  0  0  0  0  0  0  0
  -82.9087   28.3218    1.2960 H   0  0  0  0  0  0  0  0  0  0  0  0
  -82.9477   27.3930    2.7496 H   0  0  0  0  0  0  0  0  0  0  0  0
  -82.7975   30.3807    1.2532 C   0  0  0  0  0  0  0  0  0  0  0  0
  -84.2535   30.2315    1.7046 C   0  0  0  0  0  0  0  0  0  0  0  0
  -84.6828   31.4774    2.4172 C   0  0  0  0  0  0  0  0  0  0  0  0
  -88.6428   27.4806    2.4256 C   0  0  0  0  0  0  0  0  0  0  0  0
  -90.0395   27.1783    2.0653 C   0  0  0  0  0  0  0  0  0  0  0  0
  -90.9843   28.2896    2.2097 C   0  0  0  0  0  0  0  0  0  0  0  0
  -91.5215   28.6585    3.4217 O   0  0  0  0  0  0  0  0  0  0  0  0
  -91.3255   28.9427    1.1838 O   0  0  0  0  0  0  0  0  0  0  0  0
  -92.4167   29.0839    3.5813 H   0  0  0  0  0  0  0  0  0  0  0  0
 35 36  1  0  0  0
 36 37  1  0  0  0
 36 31  1  0  0  0
 31 32  1  0  0  0
 31 27  1  0  0  0
 27 28  2  0  0  0
 27 29  1  0  0  0
 29 26  1  0  0  0
 26 38  1  0  0  0
 38 39  1  0  0  0
 39 40  1  0  0  0
 40 41  1  0  0  0
 40 42  2  0  0  0
 26  1  1  0  0  0
  1  2  2  0  0  0
  1  3  1  0  0  0
  3  4  1  0  0  0
  4  5  1  0  0  0
  5  6  1  0  0  0
  6  7  1  0  0  0
  7  8  1  0  0  0
  8  9  2  0  0  0
  8 10  1  0  0  0
 10 12  1  0  0  0
 12 15  1  0  0  0
 15 16  1  0  0  0
 16 17  1  0  0  0
 17 18  1  0  0  0
 18 20  1  0  0  0
 20 21  1  0  0  0
 20 22  2  0  0  0
 12 13  1  0  0  0
 13 14  2  0  0  0
  7  3  1  0  0  0
 32 33  1  0  0  0
 32 34  1  0  0  0
 29 30  1  0  0  0
 41 43  1  0  0  0
 10 11  1  0  0  0
 18 19  1  0  0  0
 21 23  1  0  0  0
 21 24  1  0  0  0
 22 25  1  0  0  0
M  END
> <minimizedAffinity>
-7.79083

> <CNNscore>
0.1379913092

> <CNNaffinity>
6.4243569374

> <CNN_VS>
0.8865054250

> <CNNaffinity_variance>
0.2762522697

$$$$
[H]N=C(N([H])[H])N([H])C([H])([H])C([H])([H])C([H])([H])[C@@]([H])(C([H])=O)N([H])C(=O)[C@@]1([H])N(C(=O)[C@@]([H])(N([H])C(=O)[C@@]([H])(N([H])[H])C([H])(C([H])([H])[H])C([H])([H])[H])C([H])([H])C([H])([H])C(=O)O[H])C([H])([H])C([H])([H])C1([H])[H]


 43 43  0  0  0  0  0  0  0  0999 V2000
  -88.1652   27.9732    0.1618 C   0  0  0  0  0  0  0  0  0  0  0  0
  -88.1160   29.2291    0.0956 O   0  0  0  0  0  0  0  0  0  0  0  0
  -88.6290   27.1440   -0.8660 N   0  0  0  0  0  0  0  0  0  0  0  0
  -88.6033   25.6942   -0.8090 C   0  0  0  0  0  0  0  0  0  0  0  0
  -89.9251   25.3447   -1.4034 C   0  0  0  0  0  0  0  0  0  0  0  0
  -90.3437   26.4984   -2.2608 C   0  0  0  0  0  0  0  0  0  0  0  0
  -89.1681   27.4584   -2.1453 C   0  0  0  0  0  0  0  0  0  0  0  0
  -89.5814   28.8255   -2.4124 C   0  0  0  0  0  0  0  0  0  0  0  0
  -90.7663   29.1568   -2.1629 O   0  0  0  0  0  0  0  0  0  0  0  0
  -88.7242   29.8216   -2.9336 N   0  0  0  0  0  0  0  0  0  0  0  0
  -87.7041   29.6224   -3.1653 H   0  0  0  0  0  0  0  0  0  0  0  0
  -89.1372   31.1723   -3.1926 C   0  0  0  0  0  0  0  0  0  0  0  0
  -88.8883   31.6221   -4.5780 C   0  0  0  0  0  0  0  0  0  0  0  0
  -88.3968   30.9463   -5.4620 O   0  0  0  0  0  0  0  0  0  0  0  0
  -88.3214   32.1590   -2.3116 C   0  0  0  0  0  0  0  0  0  0  0  0
  -88.3558   33.5168   -2.9132 C   0  0  0  0  0  0  0  0  0  0  0  0
  -87.0882   34.3073   -2.8541 C   0  0  0  0  0  0  0  0  0  0  0  0
  -85.8850   33.5734   -2.6020 N   0  0  0  0  0  0  0  0  0  0  0  0
  -85.4209   33.0456   -3.4039 H   0  0  0  0  0  0  0  0  0  0  0  0
  -85.2127   33.4630   -1.3584 C   0  0  0  0  0  0  0  0  0  0  0  0
  -85.9166   33.4155   -0.1154 N   0  0  0  0  0  0  0  0  0  0  0  0
  -83.9301   33.3937   -1.3475 N   0  0  0  0  0  0  0  0  0  0  0  0
  -86.1381   32.5299    0.3530 H   0  0  0  0  0  0  0  0  0  0  0  0
  -86.2175   34.3055    0.3339 H   0  0  0  0  0  0  0  0  0  0  0  0
  -83.3967   33.3117   -0.4618 H   0  0  0  0  0  0  0  0  0  0  0  0
  -87.6576   27.4458    1.4910 C   0  0  0  0  0  0  0  0  0  0  0  0
  -85.3061   28.0361    2.2538 C   0  0  0  0  0  0  0  0  0  0  0  0
  -85.0200   26.7928    2.1187 O   0  0  0  0  0  0  0  0  0  0  0  0
  -86.6231   28.4102    1.9530 N   0  0  0  0  0  0  0  0  0  0  0  0
  -86.9306   29.3844    2.0461 H   0  0  0  0  0  0  0  0  0  0  0  0
  -84.2483   28.9440    2.7029 C   0  0  0  0  0  0  0  0  0  0  0  0
  -82.9558   28.3021    2.4020 N   0  0  0  0  0  0  0  0  0  0  0  0
  -82.9031   28.3043    1.3401 H   0  0  0  0  0  0  0  0  0  0  0  0
  -82.9449   27.3169    2.7544 H   0  0  0  0  0  0  0  0  0  0  0  0
  -82.7567   30.3527    1.3689 C   0  0  0  0  0  0  0  0  0  0  0  0
  -84.2075   30.2198    1.8417 C   0  0  0  0  0  0  0  0  0  0  0  0
  -84.5926   31.4448    2.6134 C   0  0  0  0  0  0  0  0  0  0  0  0
  -88.7350   27.5944    2.5446 C   0  0  0  0  0  0  0  0  0  0  0  0
  -90.1031   27.1982    2.1660 C   0  0  0  0  0  0  0  0  0  0  0  0
  -91.0686   28.2946    2.0465 C   0  0  0  0  0  0  0  0  0  0  0  0
  -91.5409   28.7431    0.8343 O   0  0  0  0  0  0  0  0  0  0  0  0
  -91.4914   28.8575    3.0952 O   0  0  0  0  0  0  0  0  0  0  0  0
  -91.8470   29.6730    0.6119 H   0  0  0  0  0  0  0  0  0  0  0  0
 35 36  1  0  0  0
 36 37  1  0  0  0
 36 31  1  0  0  0
 31 32  1  0  0  0
 31 27  1  0  0  0
 27 28  2  0  0  0
 27 29  1  0  0  0
 29 26  1  0  0  0
 26 38  1  0  0  0
 38 39  1  0  0  0
 39 40  1  0  0  0
 40 41  1  0  0  0
 40 42  2  0  0  0
 26  1  1  0  0  0
  1  2  2  0  0  0
  1  3  1  0  0  0
  3  4  1  0  0  0
  4  5  1  0  0  0
  5  6  1  0  0  0
  6  7  1  0  0  0
  7  8  1  0  0  0
  8  9  2  0  0  0
  8 10  1  0  0  0
 10 12  1  0  0  0
 12 15  1  0  0  0
 15 16  1  0  0  0
 16 17  1  0  0  0
 17 18  1  0  0  0
 18 20  1  0  0  0
 20 21  1  0  0  0
 20 22  2  0  0  0
 12 13  1  0  0  0
 13 14  2  0  0  0
  7  3  1  0  0  0
 32 33  1  0  0  0
 32 34  1  0  0  0
 29 30  1  0  0  0
 41 43  1  0  0  0
 10 11  1  0  0  0
 18 19  1  0  0  0
 21 23  1  0  0  0
 21 24  1  0  0  0
 22 25  1  0  0  0
M  END
> <minimizedAffinity>
-8.01479

> <CNNscore>
0.1109675393

> <CNNaffinity>
6.2750272751

> <CNN_VS>
0.6963243484

> <CNNaffinity_variance>
0.2950839996

$$$$
[H]N=C(N([H])[H])N([H])C([H])([H])C([H])([H])C([H])([H])[C@@]([H])(C([H])=O)N([H])C(=O)[C@@]1([H])N(C(=O)[C@@]([H])(N([H])C(=O)[C@@]([H])(N([H])[H])C([H])(C([H])([H])[H])C([H])([H])[H])C([H])([H])C([H])([H])C(=O)O[H])C([H])([H])C([H])([H])C1([H])[H]


 43 43  0  0  0  0  0  0  0  0999 V2000
  -86.3941   28.2929    0.4193 C   0  0  0  0  0  0  0  0  0  0  0  0
  -86.7706   29.0614   -0.5035 O   0  0  0  0  0  0  0  0  0  0  0  0
  -85.4481   28.6307    1.3941 N   0  0  0  0  0  0  0  0  0  0  0  0
  -85.0838   27.7661    2.5012 C   0  0  0  0  0  0  0  0  0  0  0  0
  -83.6054   27.9508    2.5554 C   0  0  0  0  0  0  0  0  0  0  0  0
  -83.3012   29.2736    1.9236 C   0  0  0  0  0  0  0  0  0  0  0  0
  -84.6808   29.8155    1.5768 C   0  0  0  0  0  0  0  0  0  0  0  0
  -84.6070   30.7749    0.4880 C   0  0  0  0  0  0  0  0  0  0  0  0
  -83.5759   30.7963   -0.2278 O   0  0  0  0  0  0  0  0  0  0  0  0
  -85.6360   31.6916    0.1728 N   0  0  0  0  0  0  0  0  0  0  0  0
  -86.5440   31.7322    0.7276 H   0  0  0  0  0  0  0  0  0  0  0  0
  -85.5591   32.6354   -0.9067 C   0  0  0  0  0  0  0  0  0  0  0  0
  -84.7426   33.8294   -0.6045 C   0  0  0  0  0  0  0  0  0  0  0  0
  -83.5337   33.9048   -0.7170 O   0  0  0  0  0  0  0  0  0  0  0  0
  -86.9714   33.2010   -1.2239 C   0  0  0  0  0  0  0  0  0  0  0  0
  -86.9044   34.0797   -2.4198 C   0  0  0  0  0  0  0  0  0  0  0  0
  -87.6912   33.6452   -3.6144 C   0  0  0  0  0  0  0  0  0  0  0  0
  -87.2335   32.4700   -4.2919 N   0  0  0  0  0  0  0  0  0  0  0  0
  -86.2880   32.4894   -4.7845 H   0  0  0  0  0  0  0  0  0  0  0  0
  -87.9208   31.2333   -4.3873 C   0  0  0  0  0  0  0  0  0  0  0  0
  -87.8649   30.2507   -3.3509 N   0  0  0  0  0  0  0  0  0  0  0  0
  -88.6244   30.9907   -5.4342 N   0  0  0  0  0  0  0  0  0  0  0  0
  -88.5946   30.1713   -2.6340 H   0  0  0  0  0  0  0  0  0  0  0  0
  -87.0593   29.5916   -3.3168 H   0  0  0  0  0  0  0  0  0  0  0  0
  -89.1442   30.1002   -5.5466 H   0  0  0  0  0  0  0  0  0  0  0  0
  -87.0872   26.9442    0.3650 C   0  0  0  0  0  0  0  0  0  0  0  0
  -88.7519   26.4764    2.2278 C   0  0  0  0  0  0  0  0  0  0  0  0
  -87.8706   25.6909    2.7300 O   0  0  0  0  0  0  0  0  0  0  0  0
  -88.4029   27.1257    1.0354 N   0  0  0  0  0  0  0  0  0  0  0  0
  -89.0582   27.7617    0.5681 H   0  0  0  0  0  0  0  0  0  0  0  0
  -90.0269   26.6259    2.9328 C   0  0  0  0  0  0  0  0  0  0  0  0
  -90.0618   25.6146    4.0047 N   0  0  0  0  0  0  0  0  0  0  0  0
  -89.3159   25.9346    4.6914 H   0  0  0  0  0  0  0  0  0  0  0  0
  -89.8130   24.6710    3.6269 H   0  0  0  0  0  0  0  0  0  0  0  0
  -90.1762   27.5628    5.1886 C   0  0  0  0  0  0  0  0  0  0  0  0
  -90.0802   27.9536    3.7107 C   0  0  0  0  0  0  0  0  0  0  0  0
  -91.2677   28.7881    3.3395 C   0  0  0  0  0  0  0  0  0  0  0  0
  -87.4888   26.6333   -1.0616 C   0  0  0  0  0  0  0  0  0  0  0  0
  -88.9312   26.5272   -1.3447 C   0  0  0  0  0  0  0  0  0  0  0  0
  -89.5389   27.7007   -1.9789 C   0  0  0  0  0  0  0  0  0  0  0  0
  -89.7823   28.8727   -1.3000 O   0  0  0  0  0  0  0  0  0  0  0  0
  -89.8555   27.6436   -3.2003 O   0  0  0  0  0  0  0  0  0  0  0  0
  -90.5103   29.5385   -1.4858 H   0  0  0  0  0  0  0  0  0  0  0  0
 35 36  1  0  0  0
 36 37  1  0  0  0
 36 31  1  0  0  0
 31 32  1  0  0  0
 31 27  1  0  0  0
 27 28  2  0  0  0
 27 29  1  0  0  0
 29 26  1  0  0  0
 26 38  1  0  0  0
 38 39  1  0  0  0
 39 40  1  0  0  0
 40 41  1  0  0  0
 40 42  2  0  0  0
 26  1  1  0  0  0
  1  2  2  0  0  0
  1  3  1  0  0  0
  3  4  1  0  0  0
  4  5  1  0  0  0
  5  6  1  0  0  0
  6  7  1  0  0  0
  7  8  1  0  0  0
  8  9  2  0  0  0
  8 10  1  0  0  0
 10 12  1  0  0  0
 12 15  1  0  0  0
 15 16  1  0  0  0
 16 17  1  0  0  0
 17 18  1  0  0  0
 18 20  1  0  0  0
 20 21  1  0  0  0
 20 22  2  0  0  0
 12 13  1  0  0  0
 13 14  2  0  0  0
  7  3  1  0  0  0
 32 33  1  0  0  0
 32 34  1  0  0  0
 29 30  1  0  0  0
 41 43  1  0  0  0
 10 11  1  0  0  0
 18 19  1  0  0  0
 21 23  1  0  0  0
 21 24  1  0  0  0
 22 25  1  0  0  0
M  END
> <minimizedAffinity>
-7.61600

> <CNNscore>
0.1039329991

> <CNNaffinity>
6.2379360199

> <CNN_VS>
0.6483274102

> <CNNaffinity_variance>
0.0750089735

$$$$
[H]N=C(N([H])[H])N([H])C([H])([H])C([H])([H])C([H])([H])[C@@]([H])(C([H])=O)N([H])C(=O)[C@@]1([H])N(C(=O)[C@@]([H])(N([H])C(=O)[C@@]([H])(N([H])[H])C([H])(C([H])([H])[H])C([H])([H])[H])C([H])([H])C([H])([H])C(=O)O[H])C([H])([H])C([H])([H])C1([H])[H]


 43 43  0  0  0  0  0  0  0  0999 V2000
  -88.6474   29.1985   -0.1117 C   0  0  0  0  0  0  0  0  0  0  0  0
  -88.1475   28.3559    0.6783 O   0  0  0  0  0  0  0  0  0  0  0  0
  -90.0203   29.4268   -0.2602 N   0  0  0  0  0  0  0  0  0  0  0  0
  -90.5808   30.4582   -1.1134 C   0  0  0  0  0  0  0  0  0  0  0  0
  -91.7351   29.7453   -1.7316 C   0  0  0  0  0  0  0  0  0  0  0  0
  -92.1075   28.6248   -0.8111 C   0  0  0  0  0  0  0  0  0  0  0  0
  -91.1411   28.7983    0.3521 C   0  0  0  0  0  0  0  0  0  0  0  0
  -90.9398   27.5433    1.0562 C   0  0  0  0  0  0  0  0  0  0  0  0
  -91.2312   27.4827    2.2758 O   0  0  0  0  0  0  0  0  0  0  0  0
  -90.4387   26.3692    0.4488 N   0  0  0  0  0  0  0  0  0  0  0  0
  -90.1744   26.3368   -0.5822 H   0  0  0  0  0  0  0  0  0  0  0  0
  -90.2449   25.1304    1.1488 C   0  0  0  0  0  0  0  0  0  0  0  0
  -91.4827   24.3455    1.3361 C   0  0  0  0  0  0  0  0  0  0  0  0
  -91.9459   23.5559    0.5350 O   0  0  0  0  0  0  0  0  0  0  0  0
  -89.7375   25.4055    2.5918 C   0  0  0  0  0  0  0  0  0  0  0  0
  -90.3353   24.4222    3.5311 C   0  0  0  0  0  0  0  0  0  0  0  0
  -89.3817   23.5539    4.2874 C   0  0  0  0  0  0  0  0  0  0  0  0
  -89.3888   22.1591    3.9643 N   0  0  0  0  0  0  0  0  0  0  0  0
  -90.0173   21.8117    3.1761 H   0  0  0  0  0  0  0  0  0  0  0  0
  -88.6256   21.1457    4.5976 C   0  0  0  0  0  0  0  0  0  0  0  0
  -88.6491   19.7872    4.1540 N   0  0  0  0  0  0  0  0  0  0  0  0
  -87.8812   21.4588    5.5965 N   0  0  0  0  0  0  0  0  0  0  0  0
  -87.9350   19.4065    3.5233 H   0  0  0  0  0  0  0  0  0  0  0  0
  -89.4138   19.1588    4.4778 H   0  0  0  0  0  0  0  0  0  0  0  0
  -87.3056   20.7509    6.0898 H   0  0  0  0  0  0  0  0  0  0  0  0
  -87.5892   29.9540   -0.8938 C   0  0  0  0  0  0  0  0  0  0  0  0
  -85.5356   30.7931    0.3466 C   0  0  0  0  0  0  0  0  0  0  0  0
  -85.9866   31.9793    0.1587 O   0  0  0  0  0  0  0  0  0  0  0  0
  -86.3069   29.7425   -0.1695 N   0  0  0  0  0  0  0  0  0  0  0  0
  -86.0071   28.7667   -0.0679 H   0  0  0  0  0  0  0  0  0  0  0  0
  -84.2734   30.6405    1.0736 C   0  0  0  0  0  0  0  0  0  0  0  0
  -84.2925   31.5920    2.1994 N   0  0  0  0  0  0  0  0  0  0  0  0
  -85.0444   31.2140    2.8491 H   0  0  0  0  0  0  0  0  0  0  0  0
  -84.5599   32.5476    1.8674 H   0  0  0  0  0  0  0  0  0  0  0  0
  -85.0481   29.4171    3.0463 C   0  0  0  0  0  0  0  0  0  0  0  0
  -84.1994   29.2740    1.7793 C   0  0  0  0  0  0  0  0  0  0  0  0
  -82.7993   28.8999    2.1589 C   0  0  0  0  0  0  0  0  0  0  0  0
  -87.3358   29.2579   -2.2145 C   0  0  0  0  0  0  0  0  0  0  0  0
  -88.2622   29.5591   -3.3204 C   0  0  0  0  0  0  0  0  0  0  0  0
  -88.1022   30.8791   -3.9374 C   0  0  0  0  0  0  0  0  0  0  0  0
  -87.1135   31.1592   -4.8526 O   0  0  0  0  0  0  0  0  0  0  0  0
  -88.9014   31.8050   -3.6224 O   0  0  0  0  0  0  0  0  0  0  0  0
  -86.6733   32.0470   -5.0136 H   0  0  0  0  0  0  0  0  0  0  0  0
 35 36  1  0  0  0
 36 37  1  0  0  0
 36 31  1  0  0  0
 31 32  1  0  0  0
 31 27  1  0  0  0
 27 28  2  0  0  0
 27 29  1  0  0  0
 29 26  1  0  0  0
 26 38  1  0  0  0
 38 39  1  0  0  0
 39 40  1  0  0  0
 40 41  1  0  0  0
 40 42  2  0  0  0
 26  1  1  0  0  0
  1  2  2  0  0  0
  1  3  1  0  0  0
  3  4  1  0  0  0
  4  5  1  0  0  0
  5  6  1  0  0  0
  6  7  1  0  0  0
  7  8  1  0  0  0
  8  9  2  0  0  0
  8 10  1  0  0  0
 10 12  1  0  0  0
 12 15  1  0  0  0
 15 16  1  0  0  0
 16 17  1  0  0  0
 17 18  1  0  0  0
 18 20  1  0  0  0
 20 21  1  0  0  0
 20 22  2  0  0  0
 12 13  1  0  0  0
 13 14  2  0  0  0
  7  3  1  0  0  0
 32 33  1  0  0  0
 32 34  1  0  0  0
 29 30  1  0  0  0
 41 43  1  0  0  0
 10 11  1  0  0  0
 18 19  1  0  0  0
 21 23  1  0  0  0
 21 24  1  0  0  0
 22 25  1  0  0  0
M  END
> <minimizedAffinity>
-7.10559

> <CNNscore>
0.1019730791

> <CNNaffinity>
5.8495430946

> <CNN_VS>
0.5964959264

> <CNNaffinity_variance>
0.0953584686

$$$$
[H]N=C(N([H])[H])N([H])C([H])([H])C([H])([H])C([H])([H])[C@@]([H])(C([H])=O)N([H])C(=O)[C@@]1([H])N(C(=O)[C@@]([H])(N([H])C(=O)[C@@]([H])(N([H])[H])C([H])(C([H])([H])[H])C([H])([H])[H])C([H])([H])C([H])([H])C(=O)O[H])C([H])([H])C([H])([H])C1([H])[H]


 43 43  0  0  0  0  0  0  0  0999 V2000
  -88.9815   30.1862   -0.5868 C   0  0  0  0  0  0  0  0  0  0  0  0
  -88.5532   29.2919    0.1884 O   0  0  0  0  0  0  0  0  0  0  0  0
  -90.2679   30.2060   -1.1381 N   0  0  0  0  0  0  0  0  0  0  0  0
  -90.7771   31.2852   -1.9639 C   0  0  0  0  0  0  0  0  0  0  0  0
  -91.5117   30.5353   -3.0225 C   0  0  0  0  0  0  0  0  0  0  0  0
  -91.8698   29.1989   -2.4504 C   0  0  0  0  0  0  0  0  0  0  0  0
  -91.3449   29.2824   -1.0240 C   0  0  0  0  0  0  0  0  0  0  0  0
  -91.0764   27.9590   -0.4875 C   0  0  0  0  0  0  0  0  0  0  0  0
  -91.5253   27.6663    0.6479 O   0  0  0  0  0  0  0  0  0  0  0  0
  -90.3407   26.9644   -1.1716 N   0  0  0  0  0  0  0  0  0  0  0  0
  -89.9324   27.1319   -2.1406 H   0  0  0  0  0  0  0  0  0  0  0  0
  -90.0812   25.6568   -0.6378 C   0  0  0  0  0  0  0  0  0  0  0  0
  -88.7636   25.5258    0.0183 C   0  0  0  0  0  0  0  0  0  0  0  0
  -88.4788   25.9522    1.1213 O   0  0  0  0  0  0  0  0  0  0  0  0
  -90.0501   24.6079   -1.7841 C   0  0  0  0  0  0  0  0  0  0  0  0
  -91.4354   24.3079   -2.2290 C   0  0  0  0  0  0  0  0  0  0  0  0
  -91.6692   22.9568   -2.8246 C   0  0  0  0  0  0  0  0  0  0  0  0
  -92.7966   22.8262   -3.6974 N   0  0  0  0  0  0  0  0  0  0  0  0
  -93.0142   23.6109   -4.3858 H   0  0  0  0  0  0  0  0  0  0  0  0
  -93.6934   21.7293   -3.7537 C   0  0  0  0  0  0  0  0  0  0  0  0
  -95.0050   21.7900   -3.1891 N   0  0  0  0  0  0  0  0  0  0  0  0
  -93.3199   20.6485   -4.3390 N   0  0  0  0  0  0  0  0  0  0  0  0
  -95.8326   22.0112   -3.7537 H   0  0  0  0  0  0  0  0  0  0  0  0
  -95.1308   21.6052   -2.1719 H   0  0  0  0  0  0  0  0  0  0  0  0
  -93.9426   19.8216   -4.4046 H   0  0  0  0  0  0  0  0  0  0  0  0
  -87.9425   31.2575   -0.8608 C   0  0  0  0  0  0  0  0  0  0  0  0
  -85.8245   31.9148    0.3810 C   0  0  0  0  0  0  0  0  0  0  0  0
  -85.9647   33.0830   -0.1304 O   0  0  0  0  0  0  0  0  0  0  0  0
  -86.7942   30.9624    0.0380 N   0  0  0  0  0  0  0  0  0  0  0  0
  -86.7448   30.0035    0.3992 H   0  0  0  0  0  0  0  0  0  0  0  0
  -84.6816   31.6803    1.2663 C   0  0  0  0  0  0  0  0  0  0  0  0
  -85.1134   30.7271    2.3046 N   0  0  0  0  0  0  0  0  0  0  0  0
  -85.2596   29.8149    1.7784 H   0  0  0  0  0  0  0  0  0  0  0  0
  -86.0163   31.0364    2.7336 H   0  0  0  0  0  0  0  0  0  0  0  0
  -82.9804   29.9487    1.5769 C   0  0  0  0  0  0  0  0  0  0  0  0
  -83.5625   30.9127    0.5387 C   0  0  0  0  0  0  0  0  0  0  0  0
  -82.4785   31.8176    0.0383 C   0  0  0  0  0  0  0  0  0  0  0  0
  -87.3425   31.0476   -2.2352 C   0  0  0  0  0  0  0  0  0  0  0  0
  -87.5049   32.1391   -3.2121 C   0  0  0  0  0  0  0  0  0  0  0  0
  -88.0831   31.7520   -4.5022 C   0  0  0  0  0  0  0  0  0  0  0  0
  -88.9892   32.5365   -5.1785 O   0  0  0  0  0  0  0  0  0  0  0  0
  -87.7407   30.6537   -5.0238 O   0  0  0  0  0  0  0  0  0  0  0  0
  -89.7127   32.2243   -5.8004 H   0  0  0  0  0  0  0  0  0  0  0  0
 35 36  1  0  0  0
 36 37  1  0  0  0
 36 31  1  0  0  0
 31 32  1  0  0  0
 31 27  1  0  0  0
 27 28  2  0  0  0
 27 29  1  0  0  0
 29 26  1  0  0  0
 26 38  1  0  0  0
 38 39  1  0  0  0
 39 40  1  0  0  0
 40 41  1  0  0  0
 40 42  2  0  0  0
 26  1  1  0  0  0
  1  2  2  0  0  0
  1  3  1  0  0  0
  3  4  1  0  0  0
  4  5  1  0  0  0
  5  6  1  0  0  0
  6  7  1  0  0  0
  7  8  1  0  0  0
  8  9  2  0  0  0
  8 10  1  0  0  0
 10 12  1  0  0  0
 12 15  1  0  0  0
 15 16  1  0  0  0
 16 17  1  0  0  0
 17 18  1  0  0  0
 18 20  1  0  0  0
 20 21  1  0  0  0
 20 22  2  0  0  0
 12 13  1  0  0  0
 13 14  2  0  0  0
  7  3  1  0  0  0
 32 33  1  0  0  0
 32 34  1  0  0  0
 29 30  1  0  0  0
 41 43  1  0  0  0
 10 11  1  0  0  0
 18 19  1  0  0  0
 21 23  1  0  0  0
 21 24  1  0  0  0
 22 25  1  0  0  0
M  END
> <minimizedAffinity>
-6.59908

> <CNNscore>
0.1015556678

> <CNNaffinity>
5.3449835777

> <CNN_VS>
0.5428133607

> <CNNaffinity_variance>
0.3393780291

$$$$
[H]N=C(N([H])[H])N([H])C([H])([H])C([H])([H])C([H])([H])[C@@]([H])(C([H])=O)N([H])C(=O)[C@@]1([H])N(C(=O)[C@@]([H])(N([H])C(=O)[C@@]([H])(N([H])[H])C([H])(C([H])([H])[H])C([H])([H])[H])C([H])([H])C([H])([H])C(=O)O[H])C([H])([H])C([H])([H])C1([H])[H]


 43 43  0  0  0  0  0  0  0  0999 V2000
  -90.0978   28.6950    0.8884 C   0  0  0  0  0  0  0  0  0  0  0  0
  -91.1539   29.3329    0.6400 O   0  0  0  0  0  0  0  0  0  0  0  0
  -88.8274   29.0564    0.4253 N   0  0  0  0  0  0  0  0  0  0  0  0
  -87.6066   28.3600    0.7867 C   0  0  0  0  0  0  0  0  0  0  0  0
  -86.8803   28.3273   -0.5149 C   0  0  0  0  0  0  0  0  0  0  0  0
  -87.4103   29.4543   -1.3458 C   0  0  0  0  0  0  0  0  0  0  0  0
  -88.4121   30.1260   -0.4172 C   0  0  0  0  0  0  0  0  0  0  0  0
  -89.4193   30.8521   -1.1719 C   0  0  0  0  0  0  0  0  0  0  0  0
  -89.5796   32.0758   -0.9415 O   0  0  0  0  0  0  0  0  0  0  0  0
  -90.2351   30.2659   -2.1666 N   0  0  0  0  0  0  0  0  0  0  0  0
  -90.1563   29.2359   -2.4252 H   0  0  0  0  0  0  0  0  0  0  0  0
  -91.2267   30.9892   -2.9119 C   0  0  0  0  0  0  0  0  0  0  0  0
  -92.4894   30.2477   -3.1100 C   0  0  0  0  0  0  0  0  0  0  0  0
  -93.3772   30.1326   -2.2864 O   0  0  0  0  0  0  0  0  0  0  0  0
  -90.7128   31.2722   -4.3510 C   0  0  0  0  0  0  0  0  0  0  0  0
  -90.3861   32.7143   -4.4939 C   0  0  0  0  0  0  0  0  0  0  0  0
  -88.9528   33.0538   -4.7494 C   0  0  0  0  0  0  0  0  0  0  0  0
  -88.0021   32.5948   -3.7822 N   0  0  0  0  0  0  0  0  0  0  0  0
  -87.9727   31.5583   -3.5340 H   0  0  0  0  0  0  0  0  0  0  0  0
  -87.0571   33.3925   -3.0883 C   0  0  0  0  0  0  0  0  0  0  0  0
  -86.6635   33.1081   -1.7441 N   0  0  0  0  0  0  0  0  0  0  0  0
  -86.5297   34.3980   -3.6890 N   0  0  0  0  0  0  0  0  0  0  0  0
  -85.8136   32.5768   -1.5249 H   0  0  0  0  0  0  0  0  0  0  0  0
  -87.2551   33.4482   -0.9573 H   0  0  0  0  0  0  0  0  0  0  0  0
  -85.8342   35.0085   -3.2209 H   0  0  0  0  0  0  0  0  0  0  0  0
  -90.3507   27.4780    1.7586 C   0  0  0  0  0  0  0  0  0  0  0  0
  -90.6380   25.5002    0.1884 C   0  0  0  0  0  0  0  0  0  0  0  0
  -91.8814   25.8109    0.1291 O   0  0  0  0  0  0  0  0  0  0  0  0
  -89.8302   26.3089    0.9997 N   0  0  0  0  0  0  0  0  0  0  0  0
  -88.8278   26.1181    1.1058 H   0  0  0  0  0  0  0  0  0  0  0  0
  -90.1763   24.3455   -0.5853 C   0  0  0  0  0  0  0  0  0  0  0  0
  -88.7822   24.0755   -0.1896 N   0  0  0  0  0  0  0  0  0  0  0  0
  -88.8561   23.7357    0.8151 H   0  0  0  0  0  0  0  0  0  0  0  0
  -88.2144   24.9538   -0.2248 H   0  0  0  0  0  0  0  0  0  0  0  0
  -89.8257   21.9850   -0.0435 C   0  0  0  0  0  0  0  0  0  0  0  0
  -90.9099   23.0607   -0.1588 C   0  0  0  0  0  0  0  0  0  0  0  0
  -91.9356   22.6267   -1.1608 C   0  0  0  0  0  0  0  0  0  0  0  0
  -89.4378   27.5149    2.9663 C   0  0  0  0  0  0  0  0  0  0  0  0
  -90.0377   27.9243    4.2487 C   0  0  0  0  0  0  0  0  0  0  0  0
  -90.3775   26.8318    5.1649 C   0  0  0  0  0  0  0  0  0  0  0  0
  -89.7812   26.6784    6.3956 O   0  0  0  0  0  0  0  0  0  0  0  0
  -91.2543   25.9908    4.8193 O   0  0  0  0  0  0  0  0  0  0  0  0
  -89.6296   25.8181    6.8904 H   0  0  0  0  0  0  0  0  0  0  0  0
 35 36  1  0  0  0
 36 37  1  0  0  0
 36 31  1  0  0  0
 31 32  1  0  0  0
 31 27  1  0  0  0
 27 28  2  0  0  0
 27 29  1  0  0  0
 29 26  1  0  0  0
 26 38  1  0  0  0
 38 39  1  0  0  0
 39 40  1  0  0  0
 40 41  1  0  0  0
 40 42  2  0  0  0
 26  1  1  0  0  0
  1  2  2  0  0  0
  1  3  1  0  0  0
  3  4  1  0  0  0
  4  5  1  0  0  0
  5  6  1  0  0  0
  6  7  1  0  0  0
  7  8  1  0  0  0
  8  9  2  0  0  0
  8 10  1  0  0  0
 10 12  1  0  0  0
 12 15  1  0  0  0
 15 16  1  0  0  0
 16 17  1  0  0  0
 17 18  1  0  0  0
 18 20  1  0  0  0
 20 21  1  0  0  0
 20 22  2  0  0  0
 12 13  1  0  0  0
 13 14  2  0  0  0
  7  3  1  0  0  0
 32 33  1  0  0  0
 32 34  1  0  0  0
 29 30  1  0  0  0
 41 43  1  0  0  0
 10 11  1  0  0  0
 18 19  1  0  0  0
 21 23  1  0  0  0
 21 24  1  0  0  0
 22 25  1  0  0  0
M  END
> <minimizedAffinity>
-6.66650

> <CNNscore>
0.0907379165

> <CNNaffinity>
5.4454822540

> <CNN_VS>
0.4941117167

> <CNNaffinity_variance>
0.5298073888

$$$$
[H]N=C(N([H])[H])N([H])C([H])([H])C([H])([H])C([H])([H])[C@@]([H])(C([H])=O)N([H])C(=O)[C@@]1([H])N(C(=O)[C@@]([H])(N([H])C(=O)[C@@]([H])(N([H])[H])C([H])(C([H])([H])[H])C([H])([H])[H])C([H])([H])C([H])([H])C(=O)O[H])C([H])([H])C([H])([H])C1([H])[H]


 43 43  0  0  0  0  0  0  0  0999 V2000
  -89.2030   32.2631   -2.3647 C   0  0  0  0  0  0  0  0  0  0  0  0
  -89.5660   31.0987   -2.0541 O   0  0  0  0  0  0  0  0  0  0  0  0
  -89.9805   33.1645   -3.1009 N   0  0  0  0  0  0  0  0  0  0  0  0
  -89.5847   34.5322   -3.3814 C   0  0  0  0  0  0  0  0  0  0  0  0
  -90.0094   34.6847   -4.8023 C   0  0  0  0  0  0  0  0  0  0  0  0
  -91.0913   33.6802   -5.0510 C   0  0  0  0  0  0  0  0  0  0  0  0
  -91.2675   33.0193   -3.6911 C   0  0  0  0  0  0  0  0  0  0  0  0
  -91.8273   31.6853   -3.8268 C   0  0  0  0  0  0  0  0  0  0  0  0
  -91.6978   31.0857   -4.9222 O   0  0  0  0  0  0  0  0  0  0  0  0
  -92.5096   31.0066   -2.7912 N   0  0  0  0  0  0  0  0  0  0  0  0
  -92.6554   31.4440   -1.8313 H   0  0  0  0  0  0  0  0  0  0  0  0
  -93.0580   29.6867   -2.9299 C   0  0  0  0  0  0  0  0  0  0  0  0
  -94.3183   29.4782   -2.1873 C   0  0  0  0  0  0  0  0  0  0  0  0
  -94.9453   30.3422   -1.6042 O   0  0  0  0  0  0  0  0  0  0  0  0
  -92.0789   28.6360   -2.3360 C   0  0  0  0  0  0  0  0  0  0  0  0
  -91.8041   28.9535   -0.9111 C   0  0  0  0  0  0  0  0  0  0  0  0
  -90.6564   28.2371   -0.2751 C   0  0  0  0  0  0  0  0  0  0  0  0
  -89.9074   27.3518   -1.1148 N   0  0  0  0  0  0  0  0  0  0  0  0
  -90.4111   26.5491   -1.6034 H   0  0  0  0  0  0  0  0  0  0  0  0
  -88.5165   27.4223   -1.3817 C   0  0  0  0  0  0  0  0  0  0  0  0
  -87.6888   26.2576   -1.4147 N   0  0  0  0  0  0  0  0  0  0  0  0
  -87.9834   28.5683   -1.6109 N   0  0  0  0  0  0  0  0  0  0  0  0
  -87.4510   25.7815   -2.2919 H   0  0  0  0  0  0  0  0  0  0  0  0
  -87.3125   25.8747   -0.5223 H   0  0  0  0  0  0  0  0  0  0  0  0
  -86.9706   28.6674   -1.8112 H   0  0  0  0  0  0  0  0  0  0  0  0
  -87.8157   32.5920   -1.8456 C   0  0  0  0  0  0  0  0  0  0  0  0
  -86.3299   31.5611   -0.0596 C   0  0  0  0  0  0  0  0  0  0  0  0
  -85.5675   32.5839   -0.1953 O   0  0  0  0  0  0  0  0  0  0  0  0
  -87.4711   31.5204   -0.8727 N   0  0  0  0  0  0  0  0  0  0  0  0
  -88.1239   30.7303   -0.8289 H   0  0  0  0  0  0  0  0  0  0  0  0
  -85.9490   30.5399    0.9187 C   0  0  0  0  0  0  0  0  0  0  0  0
  -85.4663   29.3660    0.1690 N   0  0  0  0  0  0  0  0  0  0  0  0
  -84.5561   29.6931   -0.2723 H   0  0  0  0  0  0  0  0  0  0  0  0
  -86.1482   29.1037   -0.5802 H   0  0  0  0  0  0  0  0  0  0  0  0
  -83.6733   29.8606    1.5091 C   0  0  0  0  0  0  0  0  0  0  0  0
  -84.7063   30.9719    1.7187 C   0  0  0  0  0  0  0  0  0  0  0  0
  -84.9892   31.1174    3.1827 C   0  0  0  0  0  0  0  0  0  0  0  0
  -86.7950   32.3759   -2.9432 C   0  0  0  0  0  0  0  0  0  0  0  0
  -87.2960   32.3455   -4.3289 C   0  0  0  0  0  0  0  0  0  0  0  0
  -87.8854   31.0747   -4.7603 C   0  0  0  0  0  0  0  0  0  0  0  0
  -88.8554   30.9951   -5.7332 O   0  0  0  0  0  0  0  0  0  0  0  0
  -87.4923   30.0015   -4.2225 O   0  0  0  0  0  0  0  0  0  0  0  0
  -89.5758   30.3005   -5.8125 H   0  0  0  0  0  0  0  0  0  0  0  0
 35 36  1  0  0  0
 36 37  1  0  0  0
 36 31  1  0  0  0
 31 32  1  0  0  0
 31 27  1  0  0  0
 27 28  2  0  0  0
 27 29  1  0  0  0
 29 26  1  0  0  0
 26 38  1  0  0  0
 38 39  1  0  0  0
 39 40  1  0  0  0
 40 41  1  0  0  0
 40 42  2  0  0  0
 26  1  1  0  0  0
  1  2  2  0  0  0
  1  3  1  0  0  0
  3  4  1  0  0  0
  4  5  1  0  0  0
  5  6  1  0  0  0
  6  7  1  0  0  0
  7  8  1  0  0  0
  8  9  2  0  0  0
  8 10  1  0  0  0
 10 12  1  0  0  0
 12 15  1  0  0  0
 15 16  1  0  0  0
 16 17  1  0  0  0
 17 18  1  0  0  0
 18 20  1  0  0  0
 20 21  1  0  0  0
 20 22  2  0  0  0
 12 13  1  0  0  0
 13 14  2  0  0  0
  7  3  1  0  0  0
 32 33  1  0  0  0
 32 34  1  0  0  0
 29 30  1  0  0  0
 41 43  1  0  0  0
 10 11  1  0  0  0
 18 19  1  0  0  0
 21 23  1  0  0  0
 21 24  1  0  0  0
 22 25  1  0  0  0
M  END
> <minimizedAffinity>
-6.06315

> <CNNscore>
0.0746077672

> <CNNaffinity>
5.6663522720

> <CNN_VS>
0.4227539003

> <CNNaffinity_variance>
0.1669564992

$$$$
[H]N=C(N([H])[H])N([H])C([H])([H])C([H])([H])C([H])([H])[C@@]([H])(C([H])=O)N([H])C(=O)[C@@]1([H])N(C(=O)[C@@]([H])(N([H])C(=O)[C@@]([H])(N([H])[H])C([H])(C([H])([H])[H])C([H])([H])[H])C([H])([H])C([H])([H])C(=O)O[H])C([H])([H])C([H])([H])C1([H])[H]


 43 43  0  0  0  0  0  0  0  0999 V2000
  -88.9466   29.8749   -0.4393 C   0  0  0  0  0  0  0  0  0  0  0  0
  -88.5691   29.1629    0.5276 O   0  0  0  0  0  0  0  0  0  0  0  0
  -90.2790   30.0199   -0.8425 N   0  0  0  0  0  0  0  0  0  0  0  0
  -90.7098   30.9082   -1.9062 C   0  0  0  0  0  0  0  0  0  0  0  0
  -91.7248   30.0709   -2.6071 C   0  0  0  0  0  0  0  0  0  0  0  0
  -92.2224   29.0605   -1.6207 C   0  0  0  0  0  0  0  0  0  0  0  0
  -91.4728   29.4240   -0.3467 C   0  0  0  0  0  0  0  0  0  0  0  0
  -91.3652   28.2789    0.5413 C   0  0  0  0  0  0  0  0  0  0  0  0
  -91.5291   28.4542    1.7736 O   0  0  0  0  0  0  0  0  0  0  0  0
  -91.0928   26.9629    0.1027 N   0  0  0  0  0  0  0  0  0  0  0  0
  -90.9478   26.7305   -0.9263 H   0  0  0  0  0  0  0  0  0  0  0  0
  -90.9910   25.8342    0.9846 C   0  0  0  0  0  0  0  0  0  0  0  0
  -89.6208   25.5745    1.4730 C   0  0  0  0  0  0  0  0  0  0  0  0
  -89.3270   25.2336    2.6032 O   0  0  0  0  0  0  0  0  0  0  0  0
  -91.3892   24.5324    0.2349 C   0  0  0  0  0  0  0  0  0  0  0  0
  -90.2895   24.1191   -0.6742 C   0  0  0  0  0  0  0  0  0  0  0  0
  -89.8834   22.6811   -0.6229 C   0  0  0  0  0  0  0  0  0  0  0  0
  -90.4874   21.8795    0.3980 N   0  0  0  0  0  0  0  0  0  0  0  0
  -91.3677   22.2340    0.8841 H   0  0  0  0  0  0  0  0  0  0  0  0
  -90.0309   20.6174    0.8558 C   0  0  0  0  0  0  0  0  0  0  0  0
  -88.9355   20.4894    1.7649 N   0  0  0  0  0  0  0  0  0  0  0  0
  -90.6260   19.5544    0.4486 N   0  0  0  0  0  0  0  0  0  0  0  0
  -89.0746   20.3847    2.7760 H   0  0  0  0  0  0  0  0  0  0  0  0
  -87.9621   20.5026    1.3948 H   0  0  0  0  0  0  0  0  0  0  0  0
  -90.3268   18.6106    0.7574 H   0  0  0  0  0  0  0  0  0  0  0  0
  -87.7884   30.5723   -1.1282 C   0  0  0  0  0  0  0  0  0  0  0  0
  -85.8315   31.6944    0.0430 C   0  0  0  0  0  0  0  0  0  0  0  0
  -86.0683   32.7227   -0.6867 O   0  0  0  0  0  0  0  0  0  0  0  0
  -86.6695   30.5869   -0.1477 N   0  0  0  0  0  0  0  0  0  0  0  0
  -86.5368   29.7242    0.3913 H   0  0  0  0  0  0  0  0  0  0  0  0
  -84.7238   31.7650    0.9984 C   0  0  0  0  0  0  0  0  0  0  0  0
  -85.1166   30.9919    2.1905 N   0  0  0  0  0  0  0  0  0  0  0  0
  -85.1398   29.9839    1.8532 H   0  0  0  0  0  0  0  0  0  0  0  0
  -86.0693   31.2779    2.5154 H   0  0  0  0  0  0  0  0  0  0  0  0
  -83.1038   30.0345    1.6065 C   0  0  0  0  0  0  0  0  0  0  0  0
  -83.4931   30.9977    0.4811 C   0  0  0  0  0  0  0  0  0  0  0  0
  -82.3380   31.9030    0.1803 C   0  0  0  0  0  0  0  0  0  0  0  0
  -87.2434   29.6893   -2.2311 C   0  0  0  0  0  0  0  0  0  0  0  0
  -87.9986   29.6525   -3.4961 C   0  0  0  0  0  0  0  0  0  0  0  0
  -87.9564   30.8817   -4.2935 C   0  0  0  0  0  0  0  0  0  0  0  0
  -88.5746   30.9978   -5.5175 O   0  0  0  0  0  0  0  0  0  0  0  0
  -87.3289   31.8825   -3.8463 O   0  0  0  0  0  0  0  0  0  0  0  0
  -88.2932   31.5828   -6.2833 H   0  0  0  0  0  0  0  0  0  0  0  0
 35 36  1  0  0  0
 36 37  1  0  0  0
 36 31  1  0  0  0
 31 32  1  0  0  0
 31 27  1  0  0  0
 27 28  2  0  0  0
 27 29  1  0  0  0
 29 26  1  0  0  0
 26 38  1  0  0  0
 38 39  1  0  0  0
 39 40  1  0  0  0
 40 41  1  0  0  0
 40 42  2  0  0  0
 26  1  1  0  0  0
  1  2  2  0  0  0
  1  3  1  0  0  0
  3  4  1  0  0  0
  4  5  1  0  0  0
  5  6  1  0  0  0
  6  7  1  0  0  0
  7  8  1  0  0  0
  8  9  2  0  0  0
  8 10  1  0  0  0
 10 12  1  0  0  0
 12 15  1  0  0  0
 15 16  1  0  0  0
 16 17  1  0  0  0
 17 18  1  0  0  0
 18 20  1  0  0  0
 20 21  1  0  0  0
 20 22  2  0  0  0
 12 13  1  0  0  0
 13 14  2  0  0  0
  7  3  1  0  0  0
 32 33  1  0  0  0
 32 34  1  0  0  0
 29 30  1  0  0  0
 41 43  1  0  0  0
 10 11  1  0  0  0
 18 19  1  0  0  0
 21 23  1  0  0  0
 21 24  1  0  0  0
 22 25  1  0  0  0
M  END
> <minimizedAffinity>
-7.17295

> <CNNscore>
0.0689302832

> <CNNaffinity>
5.4936428070

> <CNN_VS>
0.3786783516

> <CNNaffinity_variance>
0.2493642271

$$$$
[H]c1c([H])c([C@]2([H])O[C@]([H])(C([H])([H])[H])C([H])([H])N(C([H])([H])[H])C2([H])[H])c([H])c(Cl)c1-c1c([H])c([H])c2c(c1[H])n([H])c(=O)n2C([H])([H])[H]


 27 30  0  0  0  0  0  0  0  0999 V2000
  -86.4262   33.4568   -2.4119 C   0  0  0  0  0  0  0  0  0  0  0  0
  -87.0550   34.3610   -3.2369 C   0  0  0  0  0  0  0  0  0  0  0  0
  -88.4485   34.4943   -3.1950 C   0  0  0  0  0  0  0  0  0  0  0  0
  -89.1807   33.7297   -2.3382 C   0  0  0  0  0  0  0  0  0  0  0  0
  -88.5090   32.8268   -1.5200 C   0  0  0  0  0  0  0  0  0  0  0  0
  -89.4689   31.8580   -0.4443 Cl  0  0  0  0  0  0  0  0  0  0  0  0
  -87.1434   32.6721   -1.5368 C   0  0  0  0  0  0  0  0  0  0  0  0
  -86.4039   31.7450   -0.6921 C   0  0  0  0  0  0  0  0  0  0  0  0
  -86.9036   30.4858   -0.3806 C   0  0  0  0  0  0  0  0  0  0  0  0
  -86.2216   29.5862    0.4109 C   0  0  0  0  0  0  0  0  0  0  0  0
  -84.9857   29.9259    0.9299 C   0  0  0  0  0  0  0  0  0  0  0  0
  -84.5344   28.8861    1.6604 N   0  0  0  0  0  0  0  0  0  0  0  0
  -83.2677   28.8430    2.3740 C   0  0  0  0  0  0  0  0  0  0  0  0
  -85.4541   27.8947    1.6174 C   0  0  0  0  0  0  0  0  0  0  0  0
  -85.3084   26.7939    2.2089 O   0  0  0  0  0  0  0  0  0  0  0  0
  -86.4660   28.3379    0.8573 N   0  0  0  0  0  0  0  0  0  0  0  0
  -84.4953   31.1698    0.6202 C   0  0  0  0  0  0  0  0  0  0  0  0
  -85.1814   32.0619   -0.1701 C   0  0  0  0  0  0  0  0  0  0  0  0
  -87.3103   27.7891    0.6500 H   0  0  0  0  0  0  0  0  0  0  0  0
  -88.9897   35.5086   -4.1359 C   0  0  0  0  0  0  0  0  0  0  0  0
  -89.1880   35.0418   -5.5277 C   0  0  0  0  0  0  0  0  0  0  0  0
  -90.4844   34.4445   -5.7671 N   0  0  0  0  0  0  0  0  0  0  0  0
  -90.7662   34.5633   -7.1855 C   0  0  0  0  0  0  0  0  0  0  0  0
  -91.5396   35.1508   -5.0621 C   0  0  0  0  0  0  0  0  0  0  0  0
  -90.9878   36.4712   -4.5091 C   0  0  0  0  0  0  0  0  0  0  0  0
  -92.1497   37.2421   -3.9177 C   0  0  0  0  0  0  0  0  0  0  0  0
  -90.0613   36.1208   -3.5358 O   0  0  0  0  0  0  0  0  0  0  0  0
  1  2  2  0  0  0
  2  3  1  0  0  0
  3 20  1  0  0  0
 20 21  1  0  0  0
 21 22  1  0  0  0
 22 23  1  0  0  0
 22 24  1  0  0  0
 24 25  1  0  0  0
 25 26  1  0  0  0
 25 27  1  0  0  0
  3  4  2  0  0  0
  4  5  1  0  0  0
  5  6  1  0  0  0
  5  7  2  0  0  0
  7  8  1  0  0  0
  8  9  2  0  0  0
  9 10  1  0  0  0
 10 11  2  0  0  0
 11 12  1  0  0  0
 12 13  1  0  0  0
 12 14  1  0  0  0
 14 15  2  0  0  0
 14 16  1  0  0  0
 11 17  1  0  0  0
 17 18  2  0  0  0
  7  1  1  0  0  0
 18  8  1  0  0  0
 27 20  1  0  0  0
 16 10  1  0  0  0
 16 19  1  0  0  0
M  END
> <minimizedAffinity>
-8.83110

> <CNNscore>
0.7417299151

> <CNNaffinity>
6.5545606613

> <CNN_VS>
4.8617138863

> <CNNaffinity_variance>
0.1371300668

$$$$
[H]c1c([H])c([C@]2([H])O[C@]([H])(C([H])([H])[H])C([H])([H])N(C([H])([H])[H])C2([H])[H])c([H])c(Cl)c1-c1c([H])c([H])c2c(c1[H])n([H])c(=O)n2C([H])([H])[H]


 27 30  0  0  0  0  0  0  0  0999 V2000
  -86.3604   33.4154   -2.3742 C   0  0  0  0  0  0  0  0  0  0  0  0
  -86.9308   34.3490   -3.2089 C   0  0  0  0  0  0  0  0  0  0  0  0
  -88.3148   34.5608   -3.1791 C   0  0  0  0  0  0  0  0  0  0  0  0
  -89.0956   33.8432   -2.3245 C   0  0  0  0  0  0  0  0  0  0  0  0
  -88.4823   32.9085   -1.4964 C   0  0  0  0  0  0  0  0  0  0  0  0
  -89.5037   32.0010   -0.4238 Cl  0  0  0  0  0  0  0  0  0  0  0  0
  -87.1275   32.6771   -1.5012 C   0  0  0  0  0  0  0  0  0  0  0  0
  -86.4481   31.7146   -0.6458 C   0  0  0  0  0  0  0  0  0  0  0  0
  -86.9797   30.4533   -0.4024 C   0  0  0  0  0  0  0  0  0  0  0  0
  -86.3542   29.5207    0.3975 C   0  0  0  0  0  0  0  0  0  0  0  0
  -85.1457   29.8273    0.9954 C   0  0  0  0  0  0  0  0  0  0  0  0
  -84.7488   28.7596    1.7170 N   0  0  0  0  0  0  0  0  0  0  0  0
  -83.5250   28.6773    2.4989 C   0  0  0  0  0  0  0  0  0  0  0  0
  -85.6765   27.7826    1.5915 C   0  0  0  0  0  0  0  0  0  0  0  0
  -85.5776   26.6624    2.1555 O   0  0  0  0  0  0  0  0  0  0  0  0
  -86.6384   28.2628    0.7901 N   0  0  0  0  0  0  0  0  0  0  0  0
  -84.6236   31.0733    0.7528 C   0  0  0  0  0  0  0  0  0  0  0  0
  -85.2533   31.9985   -0.0465 C   0  0  0  0  0  0  0  0  0  0  0  0
  -87.4762   27.7322    0.5188 H   0  0  0  0  0  0  0  0  0  0  0  0
  -88.7906   35.5987   -4.1295 C   0  0  0  0  0  0  0  0  0  0  0  0
  -89.0448   36.9328   -3.5380 C   0  0  0  0  0  0  0  0  0  0  0  0
  -87.8830   37.7955   -3.5152 N   0  0  0  0  0  0  0  0  0  0  0  0
  -88.3563   39.1665   -3.4725 C   0  0  0  0  0  0  0  0  0  0  0  0
  -87.0871   37.6566   -4.7221 C   0  0  0  0  0  0  0  0  0  0  0  0
  -87.8734   36.8463   -5.7608 C   0  0  0  0  0  0  0  0  0  0  0  0
  -87.0765   36.8553   -7.0487 C   0  0  0  0  0  0  0  0  0  0  0  0
  -87.9855   35.5637   -5.2403 O   0  0  0  0  0  0  0  0  0  0  0  0
  1  2  2  0  0  0
  2  3  1  0  0  0
  3 20  1  0  0  0
 20 21  1  0  0  0
 21 22  1  0  0  0
 22 23  1  0  0  0
 22 24  1  0  0  0
 24 25  1  0  0  0
 25 26  1  0  0  0
 25 27  1  0  0  0
  3  4  2  0  0  0
  4  5  1  0  0  0
  5  6  1  0  0  0
  5  7  2  0  0  0
  7  8  1  0  0  0
  8  9  2  0  0  0
  9 10  1  0  0  0
 10 11  2  0  0  0
 11 12  1  0  0  0
 12 13  1  0  0  0
 12 14  1  0  0  0
 14 15  2  0  0  0
 14 16  1  0  0  0
 11 17  1  0  0  0
 17 18  2  0  0  0
  7  1  1  0  0  0
 18  8  1  0  0  0
 27 20  1  0  0  0
 16 10  1  0  0  0
 16 19  1  0  0  0
M  END
> <minimizedAffinity>
-9.15932

> <CNNscore>
0.5991124511

> <CNNaffinity>
6.4593915939

> <CNN_VS>
3.8699018955

> <CNNaffinity_variance>
0.0717379227

$$$$
[H]c1c([H])c([C@]2([H])O[C@]([H])(C([H])([H])[H])C([H])([H])N(C([H])([H])[H])C2([H])[H])c([H])c(Cl)c1-c1c([H])c([H])c2c(c1[H])n([H])c(=O)n2C([H])([H])[H]


 27 30  0  0  0  0  0  0  0  0999 V2000
  -89.2772   29.4234   -1.3931 C   0  0  0  0  0  0  0  0  0  0  0  0
  -90.4460   29.6607   -2.0796 C   0  0  0  0  0  0  0  0  0  0  0  0
  -90.7770   30.9653   -2.4667 C   0  0  0  0  0  0  0  0  0  0  0  0
  -89.9426   31.9983   -2.1640 C   0  0  0  0  0  0  0  0  0  0  0  0
  -88.7704   31.7185   -1.4688 C   0  0  0  0  0  0  0  0  0  0  0  0
  -87.7301   33.0564   -1.0878 Cl  0  0  0  0  0  0  0  0  0  0  0  0
  -88.4167   30.4501   -1.0749 C   0  0  0  0  0  0  0  0  0  0  0  0
  -87.1968   30.1161   -0.3538 C   0  0  0  0  0  0  0  0  0  0  0  0
  -87.1066   28.9765    0.4371 C   0  0  0  0  0  0  0  0  0  0  0  0
  -85.9620   28.6331    1.1249 C   0  0  0  0  0  0  0  0  0  0  0  0
  -84.8418   29.4395    1.0417 C   0  0  0  0  0  0  0  0  0  0  0  0
  -83.8692   28.8899    1.7970 N   0  0  0  0  0  0  0  0  0  0  0  0
  -82.5315   29.4326    1.9757 C   0  0  0  0  0  0  0  0  0  0  0  0
  -84.3452   27.7542    2.3574 C   0  0  0  0  0  0  0  0  0  0  0  0
  -83.6607   27.0220    3.1178 O   0  0  0  0  0  0  0  0  0  0  0  0
  -85.6117   27.6171    1.9387 N   0  0  0  0  0  0  0  0  0  0  0  0
  -84.9343   30.5637    0.2599 C   0  0  0  0  0  0  0  0  0  0  0  0
  -86.0795   30.8997   -0.4234 C   0  0  0  0  0  0  0  0  0  0  0  0
  -86.2236   26.8365    2.2094 H   0  0  0  0  0  0  0  0  0  0  0  0
  -92.0632   31.0722   -3.2023 C   0  0  0  0  0  0  0  0  0  0  0  0
  -92.0367   30.5870   -4.6017 C   0  0  0  0  0  0  0  0  0  0  0  0
  -92.3252   29.1754   -4.7388 N   0  0  0  0  0  0  0  0  0  0  0  0
  -92.8236   28.9588   -6.0842 C   0  0  0  0  0  0  0  0  0  0  0  0
  -93.3693   28.7492   -3.8236 C   0  0  0  0  0  0  0  0  0  0  0  0
  -94.0308   29.9826   -3.1950 C   0  0  0  0  0  0  0  0  0  0  0  0
  -95.2067   29.5022   -2.3701 C   0  0  0  0  0  0  0  0  0  0  0  0
  -93.0586   30.5743   -2.3994 O   0  0  0  0  0  0  0  0  0  0  0  0
  1  2  2  0  0  0
  2  3  1  0  0  0
  3 20  1  0  0  0
 20 21  1  0  0  0
 21 22  1  0  0  0
 22 23  1  0  0  0
 22 24  1  0  0  0
 24 25  1  0  0  0
 25 26  1  0  0  0
 25 27  1  0  0  0
  3  4  2  0  0  0
  4  5  1  0  0  0
  5  6  1  0  0  0
  5  7  2  0  0  0
  7  8  1  0  0  0
  8  9  2  0  0  0
  9 10  1  0  0  0
 10 11  2  0  0  0
 11 12  1  0  0  0
 12 13  1  0  0  0
 12 14  1  0  0  0
 14 15  2  0  0  0
 14 16  1  0  0  0
 11 17  1  0  0  0
 17 18  2  0  0  0
  7  1  1  0  0  0
 18  8  1  0  0  0
 27 20  1  0  0  0
 16 10  1  0  0  0
 16 19  1  0  0  0
M  END
> <minimizedAffinity>
-7.94291

> <CNNscore>
0.5460149646

> <CNNaffinity>
6.3707513809

> <CNN_VS>
3.4785256386

> <CNNaffinity_variance>
0.2301585227

$$$$
[H]c1c([H])c([C@]2([H])O[C@]([H])(C([H])([H])[H])C([H])([H])N(C([H])([H])[H])C2([H])[H])c([H])c(Cl)c1-c1c([H])c([H])c2c(c1[H])n([H])c(=O)n2C([H])([H])[H]


 27 30  0  0  0  0  0  0  0  0999 V2000
  -88.5963   32.6155   -1.7707 C   0  0  0  0  0  0  0  0  0  0  0  0
  -88.9983   33.7091   -2.5029 C   0  0  0  0  0  0  0  0  0  0  0  0
  -88.0592   34.6706   -2.8967 C   0  0  0  0  0  0  0  0  0  0  0  0
  -86.7490   34.5232   -2.5554 C   0  0  0  0  0  0  0  0  0  0  0  0
  -86.3813   33.4044   -1.8146 C   0  0  0  0  0  0  0  0  0  0  0  0
  -84.7055   33.2473   -1.3852 Cl  0  0  0  0  0  0  0  0  0  0  0  0
  -87.2779   32.4432   -1.4128 C   0  0  0  0  0  0  0  0  0  0  0  0
  -86.9315   31.2561   -0.6444 C   0  0  0  0  0  0  0  0  0  0  0  0
  -85.8820   31.2588    0.2673 C   0  0  0  0  0  0  0  0  0  0  0  0
  -85.5371   30.1513    1.0126 C   0  0  0  0  0  0  0  0  0  0  0  0
  -86.2490   28.9750    0.8663 C   0  0  0  0  0  0  0  0  0  0  0  0
  -85.7189   28.0547    1.6972 N   0  0  0  0  0  0  0  0  0  0  0  0
  -86.1832   26.6840    1.8446 C   0  0  0  0  0  0  0  0  0  0  0  0
  -84.6877   28.6187    2.3674 C   0  0  0  0  0  0  0  0  0  0  0  0
  -83.9972   27.9989    3.2170 O   0  0  0  0  0  0  0  0  0  0  0  0
  -84.5945   29.8859    1.9390 N   0  0  0  0  0  0  0  0  0  0  0  0
  -87.2846   28.9759   -0.0345 C   0  0  0  0  0  0  0  0  0  0  0  0
  -87.6229   30.0847   -0.7745 C   0  0  0  0  0  0  0  0  0  0  0  0
  -83.8930   30.5560    2.2797 H   0  0  0  0  0  0  0  0  0  0  0  0
  -88.6328   35.7926   -3.6835 C   0  0  0  0  0  0  0  0  0  0  0  0
  -87.7029   36.9104   -3.9665 C   0  0  0  0  0  0  0  0  0  0  0  0
  -86.9323   36.7398   -5.1796 N   0  0  0  0  0  0  0  0  0  0  0  0
  -86.5324   38.0587   -5.6336 C   0  0  0  0  0  0  0  0  0  0  0  0
  -87.7262   36.1460   -6.2410 C   0  0  0  0  0  0  0  0  0  0  0  0
  -89.2044   36.1418   -5.8305 C   0  0  0  0  0  0  0  0  0  0  0  0
  -90.0092   35.6583   -7.0191 C   0  0  0  0  0  0  0  0  0  0  0  0
  -89.3013   35.2638   -4.7590 O   0  0  0  0  0  0  0  0  0  0  0  0
  1  2  2  0  0  0
  2  3  1  0  0  0
  3 20  1  0  0  0
 20 21  1  0  0  0
 21 22  1  0  0  0
 22 23  1  0  0  0
 22 24  1  0  0  0
 24 25  1  0  0  0
 25 26  1  0  0  0
 25 27  1  0  0  0
  3  4  2  0  0  0
  4  5  1  0  0  0
  5  6  1  0  0  0
  5  7  2  0  0  0
  7  8  1  0  0  0
  8  9  2  0  0  0
  9 10  1  0  0  0
 10 11  2  0  0  0
 11 12  1  0  0  0
 12 13  1  0  0  0
 12 14  1  0  0  0
 14 15  2  0  0  0
 14 16  1  0  0  0
 11 17  1  0  0  0
 17 18  2  0  0  0
  7  1  1  0  0  0
 18  8  1  0  0  0
 27 20  1  0  0  0
 16 10  1  0  0  0
 16 19  1  0  0  0
M  END
> <minimizedAffinity>
-8.97584

> <CNNscore>
0.4527095556

> <CNNaffinity>
6.2451691628

> <CNN_VS>
2.8272478580

> <CNNaffinity_variance>
0.0874258652

$$$$
[H]c1c([H])c([C@]2([H])O[C@]([H])(C([H])([H])[H])C([H])([H])N(C([H])([H])[H])C2([H])[H])c([H])c(Cl)c1-c1c([H])c([H])c2c(c1[H])n([H])c(=O)n2C([H])([H])[H]


 27 30  0  0  0  0  0  0  0  0999 V2000
  -89.3901   27.5102   -1.4359 C   0  0  0  0  0  0  0  0  0  0  0  0
  -90.6064   27.3195   -2.0507 C   0  0  0  0  0  0  0  0  0  0  0  0
  -91.5312   28.3694   -2.1121 C   0  0  0  0  0  0  0  0  0  0  0  0
  -91.2269   29.5783   -1.5637 C   0  0  0  0  0  0  0  0  0  0  0  0
  -89.9874   29.7324   -0.9507 C   0  0  0  0  0  0  0  0  0  0  0  0
  -89.6302   31.2818   -0.2514 Cl  0  0  0  0  0  0  0  0  0  0  0  0
  -89.0582   28.7226   -0.8739 C   0  0  0  0  0  0  0  0  0  0  0  0
  -87.7493   28.8466   -0.2486 C   0  0  0  0  0  0  0  0  0  0  0  0
  -87.2546   27.8688    0.6068 C   0  0  0  0  0  0  0  0  0  0  0  0
  -86.0164   27.9577    1.2066 C   0  0  0  0  0  0  0  0  0  0  0  0
  -85.2121   29.0561    0.9641 C   0  0  0  0  0  0  0  0  0  0  0  0
  -84.0679   28.9036    1.6612 N   0  0  0  0  0  0  0  0  0  0  0  0
  -82.9577   29.8432    1.6766 C   0  0  0  0  0  0  0  0  0  0  0  0
  -84.1267   27.7348    2.3403 C   0  0  0  0  0  0  0  0  0  0  0  0
  -83.1982   27.3217    3.0819 O   0  0  0  0  0  0  0  0  0  0  0  0
  -85.3123   27.1787    2.0519 N   0  0  0  0  0  0  0  0  0  0  0  0
  -85.7035   30.0196    0.1190 C   0  0  0  0  0  0  0  0  0  0  0  0
  -86.9398   29.9238   -0.4758 C   0  0  0  0  0  0  0  0  0  0  0  0
  -85.6302   26.2776    2.4315 H   0  0  0  0  0  0  0  0  0  0  0  0
  -92.7977   28.0228   -2.8068 C   0  0  0  0  0  0  0  0  0  0  0  0
  -93.1107   28.8401   -4.0019 C   0  0  0  0  0  0  0  0  0  0  0  0
  -92.5483   28.3221   -5.2308 N   0  0  0  0  0  0  0  0  0  0  0  0
  -93.3539   28.8257   -6.3276 C   0  0  0  0  0  0  0  0  0  0  0  0
  -92.6157   26.8722   -5.2829 C   0  0  0  0  0  0  0  0  0  0  0  0
  -93.5106   26.3623   -4.1459 C   0  0  0  0  0  0  0  0  0  0  0  0
  -93.6763   24.8678   -4.3276 C   0  0  0  0  0  0  0  0  0  0  0  0
  -92.8391   26.6605   -2.9675 O   0  0  0  0  0  0  0  0  0  0  0  0
  1  2  2  0  0  0
  2  3  1  0  0  0
  3 20  1  0  0  0
 20 21  1  0  0  0
 21 22  1  0  0  0
 22 23  1  0  0  0
 22 24  1  0  0  0
 24 25  1  0  0  0
 25 26  1  0  0  0
 25 27  1  0  0  0
  3  4  2  0  0  0
  4  5  1  0  0  0
  5  6  1  0  0  0
  5  7  2  0  0  0
  7  8  1  0  0  0
  8  9  2  0  0  0
  9 10  1  0  0  0
 10 11  2  0  0  0
 11 12  1  0  0  0
 12 13  1  0  0  0
 12 14  1  0  0  0
 14 15  2  0  0  0
 14 16  1  0  0  0
 11 17  1  0  0  0
 17 18  2  0  0  0
  7  1  1  0  0  0
 18  8  1  0  0  0
 27 20  1  0  0  0
 16 10  1  0  0  0
 16 19  1  0  0  0
M  END
> <minimizedAffinity>
-7.88758

> <CNNscore>
0.4009702206

> <CNNaffinity>
6.0530838966

> <CNN_VS>
2.4271063805

> <CNNaffinity_variance>
0.1720560044

$$$$
[H]c1c([H])c([C@]2([H])O[C@]([H])(C([H])([H])[H])C([H])([H])N(C([H])([H])[H])C2([H])[H])c([H])c(Cl)c1-c1c([H])c([H])c2c(c1[H])n([H])c(=O)n2C([H])([H])[H]


 27 30  0  0  0  0  0  0  0  0999 V2000
  -88.1592   35.2827   -2.8960 C   0  0  0  0  0  0  0  0  0  0  0  0
  -88.8825   35.9926   -3.8268 C   0  0  0  0  0  0  0  0  0  0  0  0
  -89.2900   35.3744   -5.0155 C   0  0  0  0  0  0  0  0  0  0  0  0
  -88.9707   34.0713   -5.2500 C   0  0  0  0  0  0  0  0  0  0  0  0
  -88.2383   33.3868   -4.2852 C   0  0  0  0  0  0  0  0  0  0  0  0
  -87.8371   31.7293   -4.6151 Cl  0  0  0  0  0  0  0  0  0  0  0  0
  -87.8236   33.9644   -3.1089 C   0  0  0  0  0  0  0  0  0  0  0  0
  -87.0634   33.2803   -2.0727 C   0  0  0  0  0  0  0  0  0  0  0  0
  -85.6922   33.4627   -1.9343 C   0  0  0  0  0  0  0  0  0  0  0  0
  -84.9495   32.8330   -0.9582 C   0  0  0  0  0  0  0  0  0  0  0  0
  -85.5704   31.9784   -0.0658 C   0  0  0  0  0  0  0  0  0  0  0  0
  -84.6351   31.4969    0.7778 N   0  0  0  0  0  0  0  0  0  0  0  0
  -84.8808   30.5641    1.8666 C   0  0  0  0  0  0  0  0  0  0  0  0
  -83.4356   32.0255    0.4424 C   0  0  0  0  0  0  0  0  0  0  0  0
  -82.3697   31.7587    1.0552 O   0  0  0  0  0  0  0  0  0  0  0  0
  -83.6475   32.8302   -0.6091 N   0  0  0  0  0  0  0  0  0  0  0  0
  -86.9242   31.8007   -0.2052 C   0  0  0  0  0  0  0  0  0  0  0  0
  -87.6585   32.4324   -1.1815 C   0  0  0  0  0  0  0  0  0  0  0  0
  -82.9071   33.3679   -1.0778 H   0  0  0  0  0  0  0  0  0  0  0  0
  -90.0648   36.2578   -5.9244 C   0  0  0  0  0  0  0  0  0  0  0  0
  -91.3205   35.6782   -6.4552 C   0  0  0  0  0  0  0  0  0  0  0  0
  -92.4733   35.9011   -5.6090 N   0  0  0  0  0  0  0  0  0  0  0  0
  -93.6545   35.8216   -6.4481 C   0  0  0  0  0  0  0  0  0  0  0  0
  -92.4579   37.2281   -5.0190 C   0  0  0  0  0  0  0  0  0  0  0  0
  -91.3714   38.0741   -5.6954 C   0  0  0  0  0  0  0  0  0  0  0  0
  -91.4906   39.4863   -5.1610 C   0  0  0  0  0  0  0  0  0  0  0  0
  -90.1599   37.4959   -5.3401 O   0  0  0  0  0  0  0  0  0  0  0  0
  1  2  2  0  0  0
  2  3  1  0  0  0
  3 20  1  0  0  0
 20 21  1  0  0  0
 21 22  1  0  0  0
 22 23  1  0  0  0
 22 24  1  0  0  0
 24 25  1  0  0  0
 25 26  1  0  0  0
 25 27  1  0  0  0
  3  4  2  0  0  0
  4  5  1  0  0  0
  5  6  1  0  0  0
  5  7  2  0  0  0
  7  8  1  0  0  0
  8  9  2  0  0  0
  9 10  1  0  0  0
 10 11  2  0  0  0
 11 12  1  0  0  0
 12 13  1  0  0  0
 12 14  1  0  0  0
 14 15  2  0  0  0
 14 16  1  0  0  0
 11 17  1  0  0  0
 17 18  2  0  0  0
  7  1  1  0  0  0
 18  8  1  0  0  0
 27 20  1  0  0  0
 16 10  1  0  0  0
 16 19  1  0  0  0
M  END
> <minimizedAffinity>
-7.39034

> <CNNscore>
0.3760380149

> <CNNaffinity>
5.7604894638

> <CNN_VS>
2.1661629677

> <CNNaffinity_variance>
0.1379173845

$$$$
[H]c1c([H])c([C@]2([H])O[C@]([H])(C([H])([H])[H])C([H])([H])N(C([H])([H])[H])C2([H])[H])c([H])c(Cl)c1-c1c([H])c([H])c2c(c1[H])n([H])c(=O)n2C([H])([H])[H]


 27 30  0  0  0  0  0  0  0  0999 V2000
  -89.9143   29.9472   -0.6994 C   0  0  0  0  0  0  0  0  0  0  0  0
  -91.1529   29.6904   -1.2411 C   0  0  0  0  0  0  0  0  0  0  0  0
  -91.3412   29.7735   -2.6264 C   0  0  0  0  0  0  0  0  0  0  0  0
  -90.2990   30.1081   -3.4368 C   0  0  0  0  0  0  0  0  0  0  0  0
  -89.0621   30.3605   -2.8520 C   0  0  0  0  0  0  0  0  0  0  0  0
  -87.7536   30.7944   -3.9086 Cl  0  0  0  0  0  0  0  0  0  0  0  0
  -88.8445   30.2874   -1.4968 C   0  0  0  0  0  0  0  0  0  0  0  0
  -87.5650   30.5364   -0.8483 C   0  0  0  0  0  0  0  0  0  0  0  0
  -86.8444   29.5142   -0.2413 C   0  0  0  0  0  0  0  0  0  0  0  0
  -85.6279   29.7209    0.3736 C   0  0  0  0  0  0  0  0  0  0  0  0
  -85.0786   30.9896    0.4021 C   0  0  0  0  0  0  0  0  0  0  0  0
  -83.9000   30.9246    1.0542 N   0  0  0  0  0  0  0  0  0  0  0  0
  -83.0082   32.0473    1.2991 C   0  0  0  0  0  0  0  0  0  0  0  0
  -83.6882   29.6452    1.4401 C   0  0  0  0  0  0  0  0  0  0  0  0
  -82.6647   29.2770    2.0725 O   0  0  0  0  0  0  0  0  0  0  0  0
  -84.7441   28.9339    1.0191 N   0  0  0  0  0  0  0  0  0  0  0  0
  -85.7925   31.9964   -0.1981 C   0  0  0  0  0  0  0  0  0  0  0  0
  -87.0056   31.7825   -0.8097 C   0  0  0  0  0  0  0  0  0  0  0  0
  -84.8531   27.9234    1.1742 H   0  0  0  0  0  0  0  0  0  0  0  0
  -92.7255   29.4676   -3.0702 C   0  0  0  0  0  0  0  0  0  0  0  0
  -93.3223   30.4459   -4.0089 C   0  0  0  0  0  0  0  0  0  0  0  0
  -93.0459   30.1664   -5.4018 N   0  0  0  0  0  0  0  0  0  0  0  0
  -94.0925   30.7904   -6.1897 C   0  0  0  0  0  0  0  0  0  0  0  0
  -93.0919   28.7423   -5.6832 C   0  0  0  0  0  0  0  0  0  0  0  0
  -93.6906   28.0038   -4.4790 C   0  0  0  0  0  0  0  0  0  0  0  0
  -93.8610   26.5507   -4.8704 C   0  0  0  0  0  0  0  0  0  0  0  0
  -92.7731   28.1488   -3.4467 O   0  0  0  0  0  0  0  0  0  0  0  0
  1  2  2  0  0  0
  2  3  1  0  0  0
  3 20  1  0  0  0
 20 21  1  0  0  0
 21 22  1  0  0  0
 22 23  1  0  0  0
 22 24  1  0  0  0
 24 25  1  0  0  0
 25 26  1  0  0  0
 25 27  1  0  0  0
  3  4  2  0  0  0
  4  5  1  0  0  0
  5  6  1  0  0  0
  5  7  2  0  0  0
  7  8  1  0  0  0
  8  9  2  0  0  0
  9 10  1  0  0  0
 10 11  2  0  0  0
 11 12  1  0  0  0
 12 13  1  0  0  0
 12 14  1  0  0  0
 14 15  2  0  0  0
 14 16  1  0  0  0
 11 17  1  0  0  0
 17 18  2  0  0  0
  7  1  1  0  0  0
 18  8  1  0  0  0
 27 20  1  0  0  0
 16 10  1  0  0  0
 16 19  1  0  0  0
M  END
> <minimizedAffinity>
-7.71934

> <CNNscore>
0.2558121085

> <CNNaffinity>
5.9516310692

> <CNN_VS>
1.5224993229

> <CNNaffinity_variance>
0.2106450498

$$$$
[H]c1c([H])c([C@]2([H])O[C@]([H])(C([H])([H])[H])C([H])([H])N(C([H])([H])[H])C2([H])[H])c([H])c(Cl)c1-c1c([H])c([H])c2c(c1[H])n([H])c(=O)n2C([H])([H])[H]


 27 30  0  0  0  0  0  0  0  0999 V2000
  -88.9820   28.2795    0.9099 C   0  0  0  0  0  0  0  0  0  0  0  0
  -90.1432   27.5435    0.8494 C   0  0  0  0  0  0  0  0  0  0  0  0
  -90.6327   27.1104   -0.3892 C   0  0  0  0  0  0  0  0  0  0  0  0
  -89.9600   27.4174   -1.5329 C   0  0  0  0  0  0  0  0  0  0  0  0
  -88.7900   28.1633   -1.4310 C   0  0  0  0  0  0  0  0  0  0  0  0
  -87.9581   28.5483   -2.9064 Cl  0  0  0  0  0  0  0  0  0  0  0  0
  -88.2832   28.6031   -0.2314 C   0  0  0  0  0  0  0  0  0  0  0  0
  -87.0597   29.3782   -0.0829 C   0  0  0  0  0  0  0  0  0  0  0  0
  -86.9704   30.6917   -0.5296 C   0  0  0  0  0  0  0  0  0  0  0  0
  -85.8269   31.4502   -0.3955 C   0  0  0  0  0  0  0  0  0  0  0  0
  -84.7068   30.9054    0.2052 C   0  0  0  0  0  0  0  0  0  0  0  0
  -83.7352   31.8405    0.2131 N   0  0  0  0  0  0  0  0  0  0  0  0
  -82.3981   31.6633    0.7577 C   0  0  0  0  0  0  0  0  0  0  0  0
  -84.2118   32.9656   -0.3681 C   0  0  0  0  0  0  0  0  0  0  0  0
  -83.5282   34.0129   -0.5045 O   0  0  0  0  0  0  0  0  0  0  0  0
  -85.4775   32.7087   -0.7288 N   0  0  0  0  0  0  0  0  0  0  0  0
  -84.7985   29.6086    0.6451 C   0  0  0  0  0  0  0  0  0  0  0  0
  -85.9428   28.8581    0.5079 C   0  0  0  0  0  0  0  0  0  0  0  0
  -86.0895   33.3896   -1.1967 H   0  0  0  0  0  0  0  0  0  0  0  0
  -91.8903   26.3242   -0.3035 C   0  0  0  0  0  0  0  0  0  0  0  0
  -92.5476   26.0343   -1.5989 C   0  0  0  0  0  0  0  0  0  0  0  0
  -92.0854   24.8176   -2.2320 N   0  0  0  0  0  0  0  0  0  0  0  0
  -93.1375   24.3588   -3.1198 C   0  0  0  0  0  0  0  0  0  0  0  0
  -91.8553   23.7614   -1.2620 C   0  0  0  0  0  0  0  0  0  0  0  0
  -92.4377   24.1793    0.0944 C   0  0  0  0  0  0  0  0  0  0  0  0
  -92.3133   22.9958    1.0314 C   0  0  0  0  0  0  0  0  0  0  0  0
  -91.6701   25.2532    0.5258 O   0  0  0  0  0  0  0  0  0  0  0  0
  1  2  2  0  0  0
  2  3  1  0  0  0
  3 20  1  0  0  0
 20 21  1  0  0  0
 21 22  1  0  0  0
 22 23  1  0  0  0
 22 24  1  0  0  0
 24 25  1  0  0  0
 25 26  1  0  0  0
 25 27  1  0  0  0
  3  4  2  0  0  0
  4  5  1  0  0  0
  5  6  1  0  0  0
  5  7  2  0  0  0
  7  8  1  0  0  0
  8  9  2  0  0  0
  9 10  1  0  0  0
 10 11  2  0  0  0
 11 12  1  0  0  0
 12 13  1  0  0  0
 12 14  1  0  0  0
 14 15  2  0  0  0
 14 16  1  0  0  0
 11 17  1  0  0  0
 17 18  2  0  0  0
  7  1  1  0  0  0
 18  8  1  0  0  0
 27 20  1  0  0  0
 16 10  1  0  0  0
 16 19  1  0  0  0
M  END
> <minimizedAffinity>
-8.01637

> <CNNscore>
0.2155291140

> <CNNaffinity>
5.8575134277

> <CNN_VS>
1.2624646425

> <CNNaffinity_variance>
0.2572634220

$$$$
[H]c1c([H])c([C@]2([H])O[C@]([H])(C([H])([H])[H])C([H])([H])N(C([H])([H])[H])C2([H])[H])c([H])c(Cl)c1-c1c([H])c([H])c2c(c1[H])n([H])c(=O)n2C([H])([H])[H]


 27 30  0  0  0  0  0  0  0  0999 V2000
  -88.0217   27.5253    2.1384 C   0  0  0  0  0  0  0  0  0  0  0  0
  -89.0318   26.6140    2.3457 C   0  0  0  0  0  0  0  0  0  0  0  0
  -89.7262   26.0794    1.2533 C   0  0  0  0  0  0  0  0  0  0  0  0
  -89.4020   26.4611   -0.0132 C   0  0  0  0  0  0  0  0  0  0  0  0
  -88.3752   27.3846   -0.1823 C   0  0  0  0  0  0  0  0  0  0  0  0
  -87.9898   27.8604   -1.8077 Cl  0  0  0  0  0  0  0  0  0  0  0  0
  -87.6746   27.9276    0.8682 C   0  0  0  0  0  0  0  0  0  0  0  0
  -86.5902   28.8894    0.7320 C   0  0  0  0  0  0  0  0  0  0  0  0
  -86.7841   30.1255    0.1260 C   0  0  0  0  0  0  0  0  0  0  0  0
  -85.7769   31.0571   -0.0099 C   0  0  0  0  0  0  0  0  0  0  0  0
  -84.5104   30.7753    0.4683 C   0  0  0  0  0  0  0  0  0  0  0  0
  -83.7178   31.8364    0.2148 N   0  0  0  0  0  0  0  0  0  0  0  0
  -82.3087   31.9389    0.5611 C   0  0  0  0  0  0  0  0  0  0  0  0
  -84.4508   32.7848   -0.4127 C   0  0  0  0  0  0  0  0  0  0  0  0
  -83.9778   33.8926   -0.7761 O   0  0  0  0  0  0  0  0  0  0  0  0
  -85.6923   32.2941   -0.5389 N   0  0  0  0  0  0  0  0  0  0  0  0
  -84.3224   29.5542    1.0662 C   0  0  0  0  0  0  0  0  0  0  0  0
  -85.3321   28.6299    1.1982 C   0  0  0  0  0  0  0  0  0  0  0  0
  -86.4677   32.8034   -0.9821 H   0  0  0  0  0  0  0  0  0  0  0  0
  -90.7860   25.1069    1.6249 C   0  0  0  0  0  0  0  0  0  0  0  0
  -91.5782   24.5683    0.4950 C   0  0  0  0  0  0  0  0  0  0  0  0
  -91.0069   23.3843   -0.1104 N   0  0  0  0  0  0  0  0  0  0  0  0
  -92.0849   22.6591   -0.7564 C   0  0  0  0  0  0  0  0  0  0  0  0
  -90.4320   22.4963    0.8848 C   0  0  0  0  0  0  0  0  0  0  0  0
  -90.8554   22.9580    2.2853 C   0  0  0  0  0  0  0  0  0  0  0  0
  -90.3647   21.9238    3.2771 C   0  0  0  0  0  0  0  0  0  0  0  0
  -90.2406   24.1870    2.4850 O   0  0  0  0  0  0  0  0  0  0  0  0
  1  2  2  0  0  0
  2  3  1  0  0  0
  3 20  1  0  0  0
 20 21  1  0  0  0
 21 22  1  0  0  0
 22 23  1  0  0  0
 22 24  1  0  0  0
 24 25  1  0  0  0
 25 26  1  0  0  0
 25 27  1  0  0  0
  3  4  2  0  0  0
  4  5  1  0  0  0
  5  6  1  0  0  0
  5  7  2  0  0  0
  7  8  1  0  0  0
  8  9  2  0  0  0
  9 10  1  0  0  0
 10 11  2  0  0  0
 11 12  1  0  0  0
 12 13  1  0  0  0
 12 14  1  0  0  0
 14 15  2  0  0  0
 14 16  1  0  0  0
 11 17  1  0  0  0
 17 18  2  0  0  0
  7  1  1  0  0  0
 18  8  1  0  0  0
 27 20  1  0  0  0
 16 10  1  0  0  0
 16 19  1  0  0  0
M  END
> <minimizedAffinity>
-8.63231

> <CNNscore>
0.1616624445

> <CNNaffinity>
5.8471064568

> <CNN_VS>
0.9452575445

> <CNNaffinity_variance>
0.3072980046

$$$$
[H]Oc1c([H])c([H])c(N([H])c2c([H])c(/C([H])=C(\[H])C(=O)N3C([H])([H])[C@@]4([H])N(c5c([H])c([H])c(C(=O)N([H])c6c([H])c([H])c(C(C([H])([H])[H])(C([H])([H])[H])C([H])([H])[H])c([H])c6[H])c([H])c5[H])C([H])([H])[C@]3([H])C([H])([H])C4([H])[H])c([H])c([H])c2O[H])c([H])c1[H]


 50 55  0  0  0  0  0  0  0  0999 V2000
  -93.1663   28.2893   -3.9134 N   0  0  0  0  0  0  0  0  0  0  0  0
  -92.7230   27.7873   -2.5885 C   0  0  0  0  0  0  0  0  0  0  0  0
  -92.8085   29.0149   -1.7158 C   0  0  0  0  0  0  0  0  0  0  0  0
  -93.9728   29.9100   -2.0508 C   0  0  0  0  0  0  0  0  0  0  0  0
  -93.8884   30.4862   -3.4444 C   0  0  0  0  0  0  0  0  0  0  0  0
  -92.8236   29.6343   -4.1917 C   0  0  0  0  0  0  0  0  0  0  0  0
  -91.5010   30.0747   -3.5025 C   0  0  0  0  0  0  0  0  0  0  0  0
  -91.5955   29.8115   -2.1102 N   0  0  0  0  0  0  0  0  0  0  0  0
  -90.7544   30.1606   -1.0559 C   0  0  0  0  0  0  0  0  0  0  0  0
  -91.1297   29.7354    0.1506 O   0  0  0  0  0  0  0  0  0  0  0  0
  -95.1731   25.5857   -6.4653 C   0  0  0  0  0  0  0  0  0  0  0  0
  -95.7826   26.7444   -6.0951 C   0  0  0  0  0  0  0  0  0  0  0  0
  -95.1625   27.6640   -5.2381 C   0  0  0  0  0  0  0  0  0  0  0  0
  -93.9065   27.4308   -4.7337 C   0  0  0  0  0  0  0  0  0  0  0  0
  -93.2722   26.2265   -5.1104 C   0  0  0  0  0  0  0  0  0  0  0  0
  -93.8891   25.3493   -5.9422 C   0  0  0  0  0  0  0  0  0  0  0  0
  -95.3122   23.2743   -7.3837 N   0  0  0  0  0  0  0  0  0  0  0  0
  -95.6673   24.6067   -7.4204 C   0  0  0  0  0  0  0  0  0  0  0  0
  -96.4574   25.0438   -8.3291 O   0  0  0  0  0  0  0  0  0  0  0  0
  -94.7090   22.8612   -6.6416 H   0  0  0  0  0  0  0  0  0  0  0  0
  -96.6963   20.3886  -10.2296 C   0  0  0  0  0  0  0  0  0  0  0  0
  -97.5452   20.9519   -9.2629 C   0  0  0  0  0  0  0  0  0  0  0  0
  -97.0726   21.8867   -8.3724 C   0  0  0  0  0  0  0  0  0  0  0  0
  -95.7588   22.3180   -8.3771 C   0  0  0  0  0  0  0  0  0  0  0  0
  -94.9137   21.7806   -9.3156 C   0  0  0  0  0  0  0  0  0  0  0  0
  -95.3980   20.8285  -10.2213 C   0  0  0  0  0  0  0  0  0  0  0  0
  -97.7910   18.1542  -10.4768 C   0  0  0  0  0  0  0  0  0  0  0  0
  -97.2476   19.3783  -11.1657 C   0  0  0  0  0  0  0  0  0  0  0  0
  -96.2236   18.9523  -12.1978 C   0  0  0  0  0  0  0  0  0  0  0  0
  -98.4109   19.9786  -11.9694 C   0  0  0  0  0  0  0  0  0  0  0  0
  -89.5426   30.9001   -1.0045 C   0  0  0  0  0  0  0  0  0  0  0  0
  -88.3455   30.4809   -1.2890 C   0  0  0  0  0  0  0  0  0  0  0  0
  -87.1917   31.4039   -1.1802 C   0  0  0  0  0  0  0  0  0  0  0  0
  -87.0681   32.4583   -2.0641 C   0  0  0  0  0  0  0  0  0  0  0  0
  -85.9911   33.3299   -1.9384 C   0  0  0  0  0  0  0  0  0  0  0  0
  -85.0608   33.1446   -0.9484 C   0  0  0  0  0  0  0  0  0  0  0  0
  -83.9913   34.0111   -0.8242 O   0  0  0  0  0  0  0  0  0  0  0  0
  -85.1401   32.1037   -0.0404 C   0  0  0  0  0  0  0  0  0  0  0  0
  -86.2397   31.2579   -0.2078 C   0  0  0  0  0  0  0  0  0  0  0  0
  -83.8322   34.8036   -1.4212 H   0  0  0  0  0  0  0  0  0  0  0  0
  -84.2292   31.9259    0.9995 N   0  0  0  0  0  0  0  0  0  0  0  0
  -83.7251   32.7968    1.3451 H   0  0  0  0  0  0  0  0  0  0  0  0
  -83.9626   30.6889    1.5960 C   0  0  0  0  0  0  0  0  0  0  0  0
  -82.7551   30.0430    1.4318 C   0  0  0  0  0  0  0  0  0  0  0  0
  -82.4648   28.8147    1.9794 C   0  0  0  0  0  0  0  0  0  0  0  0
  -83.4222   28.1830    2.7379 C   0  0  0  0  0  0  0  0  0  0  0  0
  -83.2059   26.9460    3.3234 O   0  0  0  0  0  0  0  0  0  0  0  0
  -84.6215   28.8068    2.9116 C   0  0  0  0  0  0  0  0  0  0  0  0
  -84.9048   30.0184    2.3688 C   0  0  0  0  0  0  0  0  0  0  0  0
  -82.8217   26.7918    4.2386 H   0  0  0  0  0  0  0  0  0  0  0  0
 27 28  1  0  0  0
 28 29  1  0  0  0
 28 30  1  0  0  0
 28 21  1  0  0  0
 21 22  2  0  0  0
 22 23  1  0  0  0
 23 24  2  0  0  0
 24 17  1  0  0  0
 17 18  1  0  0  0
 18 19  2  0  0  0
 18 11  1  0  0  0
 11 12  2  0  0  0
 12 13  1  0  0  0
 13 14  2  0  0  0
 14 15  1  0  0  0
 15 16  2  0  0  0
 14  1  1  0  0  0
  1  2  1  0  0  0
  2  3  1  0  0  0
  3  4  1  0  0  0
  4  5  1  0  0  0
  5  6  1  0  0  0
  6  7  1  0  0  0
  7  8  1  0  0  0
  8  9  1  0  0  0
  9 10  2  0  0  0
  9 31  1  0  0  0
 31 32  2  0  0  0
 32 33  1  0  0  0
 33 34  2  0  0  0
 34 35  1  0  0  0
 35 36  2  0  0  0
 36 37  1  0  0  0
 36 38  1  0  0  0
 38 41  1  0  0  0
 41 43  1  0  0  0
 43 44  2  0  0  0
 44 45  1  0  0  0
 45 46  2  0  0  0
 46 47  1  0  0  0
 46 48  1  0  0  0
 48 49  2  0  0  0
 38 39  2  0  0  0
 24 25  1  0  0  0
 25 26  2  0  0  0
 26 21  1  0  0  0
 16 11  1  0  0  0
  6  1  1  0  0  0
 39 33  1  0  0  0
  8  3  1  0  0  0
 49 43  1  0  0  0
 17 20  1  0  0  0
 37 40  1  0  0  0
 41 42  1  0  0  0
 47 50  1  0  0  0
M  END
> <minimizedAffinity>
-10.34766

> <CNNscore>
0.4800701141

> <CNNaffinity>
6.7081880569

> <CNN_VS>
3.2204005718

> <CNNaffinity_variance>
0.5221396089

$$$$
[H]Oc1c([H])c([H])c(N([H])c2c([H])c(/C([H])=C(\[H])C(=O)N3C([H])([H])[C@@]4([H])N(c5c([H])c([H])c(C(=O)N([H])c6c([H])c([H])c(C(C([H])([H])[H])(C([H])([H])[H])C([H])([H])[H])c([H])c6[H])c([H])c5[H])C([H])([H])[C@]3([H])C([H])([H])C4([H])[H])c([H])c([H])c2O[H])c([H])c1[H]


 50 55  0  0  0  0  0  0  0  0999 V2000
  -90.5576   25.3667   -0.3129 N   0  0  0  0  0  0  0  0  0  0  0  0
  -89.2514   24.8096    0.1200 C   0  0  0  0  0  0  0  0  0  0  0  0
  -88.9128   25.6429    1.3311 C   0  0  0  0  0  0  0  0  0  0  0  0
  -90.1136   26.0054    2.1653 C   0  0  0  0  0  0  0  0  0  0  0  0
  -91.1056   26.8688    1.4224 C   0  0  0  0  0  0  0  0  0  0  0  0
  -90.7260   26.7530   -0.0811 C   0  0  0  0  0  0  0  0  0  0  0  0
  -89.3881   27.5427   -0.1487 C   0  0  0  0  0  0  0  0  0  0  0  0
  -88.4554   26.9488    0.7423 N   0  0  0  0  0  0  0  0  0  0  0  0
  -87.1926   27.3683    1.1550 C   0  0  0  0  0  0  0  0  0  0  0  0
  -86.5597   26.5560    2.0018 O   0  0  0  0  0  0  0  0  0  0  0  0
  -93.3034   22.7578   -2.1845 C   0  0  0  0  0  0  0  0  0  0  0  0
  -93.6282   23.3442   -1.0006 C   0  0  0  0  0  0  0  0  0  0  0  0
  -92.7436   24.2041   -0.3351 C   0  0  0  0  0  0  0  0  0  0  0  0
  -91.5049   24.4909   -0.8546 C   0  0  0  0  0  0  0  0  0  0  0  0
  -91.1609   23.8798   -2.0805 C   0  0  0  0  0  0  0  0  0  0  0  0
  -92.0321   23.0509   -2.7097 C   0  0  0  0  0  0  0  0  0  0  0  0
  -93.9203   21.6947   -4.3512 N   0  0  0  0  0  0  0  0  0  0  0  0
  -94.1666   21.9332   -3.0151 C   0  0  0  0  0  0  0  0  0  0  0  0
  -95.1991   21.4329   -2.4453 O   0  0  0  0  0  0  0  0  0  0  0  0
  -93.0740   22.0416   -4.8498 H   0  0  0  0  0  0  0  0  0  0  0  0
  -96.4777   19.3676   -6.8785 C   0  0  0  0  0  0  0  0  0  0  0  0
  -95.3274   18.8286   -6.2792 C   0  0  0  0  0  0  0  0  0  0  0  0
  -94.5350   19.5992   -5.4615 C   0  0  0  0  0  0  0  0  0  0  0  0
  -94.8195   20.9243   -5.1871 C   0  0  0  0  0  0  0  0  0  0  0  0
  -95.9406   21.4689   -5.7619 C   0  0  0  0  0  0  0  0  0  0  0  0
  -96.7456   20.6816   -6.5945 C   0  0  0  0  0  0  0  0  0  0  0  0
  -97.1960   17.0361   -7.4263 C   0  0  0  0  0  0  0  0  0  0  0  0
  -97.2993   18.5014   -7.7590 C   0  0  0  0  0  0  0  0  0  0  0  0
  -96.9570   18.7026   -9.2211 C   0  0  0  0  0  0  0  0  0  0  0  0
  -98.7844   18.8732   -7.6332 C   0  0  0  0  0  0  0  0  0  0  0  0
  -86.4202   28.5201    0.8476 C   0  0  0  0  0  0  0  0  0  0  0  0
  -85.3695   28.9602    1.4738 C   0  0  0  0  0  0  0  0  0  0  0  0
  -84.6859   30.1873    1.0027 C   0  0  0  0  0  0  0  0  0  0  0  0
  -83.3137   30.2980    1.1177 C   0  0  0  0  0  0  0  0  0  0  0  0
  -82.6816   31.4468    0.6527 C   0  0  0  0  0  0  0  0  0  0  0  0
  -83.4123   32.4597    0.0869 C   0  0  0  0  0  0  0  0  0  0  0  0
  -82.7834   33.6005   -0.3748 O   0  0  0  0  0  0  0  0  0  0  0  0
  -84.7876   32.3966   -0.0494 C   0  0  0  0  0  0  0  0  0  0  0  0
  -85.3744   31.2229    0.4311 C   0  0  0  0  0  0  0  0  0  0  0  0
  -81.7916   33.7565   -0.3339 H   0  0  0  0  0  0  0  0  0  0  0  0
  -85.5414   33.3961   -0.6621 N   0  0  0  0  0  0  0  0  0  0  0  0
  -85.1379   34.3803   -0.6361 H   0  0  0  0  0  0  0  0  0  0  0  0
  -86.7661   33.1664   -1.2979 C   0  0  0  0  0  0  0  0  0  0  0  0
  -86.9224   33.3167   -2.6599 C   0  0  0  0  0  0  0  0  0  0  0  0
  -88.1157   33.1264   -3.3178 C   0  0  0  0  0  0  0  0  0  0  0  0
  -89.2245   32.7634   -2.5900 C   0  0  0  0  0  0  0  0  0  0  0  0
  -90.4607   32.5524   -3.1792 O   0  0  0  0  0  0  0  0  0  0  0  0
  -89.0887   32.6095   -1.2426 C   0  0  0  0  0  0  0  0  0  0  0  0
  -87.9098   32.7993   -0.5967 C   0  0  0  0  0  0  0  0  0  0  0  0
  -90.7937   31.6765   -3.5410 H   0  0  0  0  0  0  0  0  0  0  0  0
 27 28  1  0  0  0
 28 29  1  0  0  0
 28 30  1  0  0  0
 28 21  1  0  0  0
 21 22  2  0  0  0
 22 23  1  0  0  0
 23 24  2  0  0  0
 24 17  1  0  0  0
 17 18  1  0  0  0
 18 19  2  0  0  0
 18 11  1  0  0  0
 11 12  2  0  0  0
 12 13  1  0  0  0
 13 14  2  0  0  0
 14 15  1  0  0  0
 15 16  2  0  0  0
 14  1  1  0  0  0
  1  2  1  0  0  0
  2  3  1  0  0  0
  3  4  1  0  0  0
  4  5  1  0  0  0
  5  6  1  0  0  0
  6  7  1  0  0  0
  7  8  1  0  0  0
  8  9  1  0  0  0
  9 10  2  0  0  0
  9 31  1  0  0  0
 31 32  2  0  0  0
 32 33  1  0  0  0
 33 34  2  0  0  0
 34 35  1  0  0  0
 35 36  2  0  0  0
 36 37  1  0  0  0
 36 38  1  0  0  0
 38 41  1  0  0  0
 41 43  1  0  0  0
 43 44  2  0  0  0
 44 45  1  0  0  0
 45 46  2  0  0  0
 46 47  1  0  0  0
 46 48  1  0  0  0
 48 49  2  0  0  0
 38 39  2  0  0  0
 24 25  1  0  0  0
 25 26  2  0  0  0
 26 21  1  0  0  0
 16 11  1  0  0  0
  6  1  1  0  0  0
 39 33  1  0  0  0
  8  3  1  0  0  0
 49 43  1  0  0  0
 17 20  1  0  0  0
 37 40  1  0  0  0
 41 42  1  0  0  0
 47 50  1  0  0  0
M  END
> <minimizedAffinity>
-10.25841

> <CNNscore>
0.2879464924

> <CNNaffinity>
6.9967513084

> <CNN_VS>
2.0146899223

> <CNNaffinity_variance>
0.3370285630

$$$$
[H]Oc1c([H])c([H])c(N([H])c2c([H])c(/C([H])=C(\[H])C(=O)N3C([H])([H])[C@@]4([H])N(c5c([H])c([H])c(C(=O)N([H])c6c([H])c([H])c(C(C([H])([H])[H])(C([H])([H])[H])C([H])([H])[H])c([H])c6[H])c([H])c5[H])C([H])([H])[C@]3([H])C([H])([H])C4([H])[H])c([H])c([H])c2O[H])c([H])c1[H]


 50 55  0  0  0  0  0  0  0  0999 V2000
  -93.9615   27.5643   -4.9971 N   0  0  0  0  0  0  0  0  0  0  0  0
  -94.5775   28.3250   -6.1132 C   0  0  0  0  0  0  0  0  0  0  0  0
  -96.0238   27.8997   -6.0548 C   0  0  0  0  0  0  0  0  0  0  0  0
  -96.5327   27.6929   -4.6522 C   0  0  0  0  0  0  0  0  0  0  0  0
  -95.8184   26.5769   -3.9272 C   0  0  0  0  0  0  0  0  0  0  0  0
  -94.5309   26.2918   -4.7511 C   0  0  0  0  0  0  0  0  0  0  0  0
  -95.0986   25.6263   -6.0367 C   0  0  0  0  0  0  0  0  0  0  0  0
  -96.0094   26.5220   -6.6571 N   0  0  0  0  0  0  0  0  0  0  0  0
  -96.8820   26.3403   -7.7278 C   0  0  0  0  0  0  0  0  0  0  0  0
  -97.5995   27.4079   -8.0788 O   0  0  0  0  0  0  0  0  0  0  0  0
  -90.8012   29.1607   -2.6922 C   0  0  0  0  0  0  0  0  0  0  0  0
  -91.7598   29.9884   -3.1894 C   0  0  0  0  0  0  0  0  0  0  0  0
  -92.8181   29.5066   -3.9721 C   0  0  0  0  0  0  0  0  0  0  0  0
  -92.9306   28.1708   -4.2711 C   0  0  0  0  0  0  0  0  0  0  0  0
  -91.9345   27.3085   -3.7622 C   0  0  0  0  0  0  0  0  0  0  0  0
  -90.9182   27.7946   -3.0053 C   0  0  0  0  0  0  0  0  0  0  0  0
  -88.4092   29.6575   -2.2053 N   0  0  0  0  0  0  0  0  0  0  0  0
  -89.7182   29.5224   -1.7916 C   0  0  0  0  0  0  0  0  0  0  0  0
  -90.0334   29.7040   -0.5633 O   0  0  0  0  0  0  0  0  0  0  0  0
  -88.1083   29.5633   -3.1982 H   0  0  0  0  0  0  0  0  0  0  0  0
  -85.2444   30.4411    0.5718 C   0  0  0  0  0  0  0  0  0  0  0  0
  -85.5594   29.1407    0.1448 C   0  0  0  0  0  0  0  0  0  0  0  0
  -86.5729   28.9245   -0.7589 C   0  0  0  0  0  0  0  0  0  0  0  0
  -87.3261   29.9556   -1.2895 C   0  0  0  0  0  0  0  0  0  0  0  0
  -87.0323   31.2342   -0.8860 C   0  0  0  0  0  0  0  0  0  0  0  0
  -85.9997   31.4512    0.0348 C   0  0  0  0  0  0  0  0  0  0  0  0
  -83.0125   31.4694    1.0339 C   0  0  0  0  0  0  0  0  0  0  0  0
  -84.1477   30.6267    1.5534 C   0  0  0  0  0  0  0  0  0  0  0  0
  -83.5985   29.3005    2.0380 C   0  0  0  0  0  0  0  0  0  0  0  0
  -84.6751   31.3335    2.8111 C   0  0  0  0  0  0  0  0  0  0  0  0
  -97.1712   25.2150   -8.5451 C   0  0  0  0  0  0  0  0  0  0  0  0
  -97.7814   24.1205   -8.1998 C   0  0  0  0  0  0  0  0  0  0  0  0
  -97.9989   23.0469   -9.1974 C   0  0  0  0  0  0  0  0  0  0  0  0
  -98.9391   23.2150  -10.1955 C   0  0  0  0  0  0  0  0  0  0  0  0
  -99.1191   22.2080  -11.1383 C   0  0  0  0  0  0  0  0  0  0  0  0
  -98.3723   21.0596  -11.0778 C   0  0  0  0  0  0  0  0  0  0  0  0
  -98.5518   20.0599  -12.0150 O   0  0  0  0  0  0  0  0  0  0  0  0
  -97.4201   20.8439  -10.0975 C   0  0  0  0  0  0  0  0  0  0  0  0
  -97.2764   21.8847   -9.1762 C   0  0  0  0  0  0  0  0  0  0  0  0
  -99.2090   20.1062  -12.7738 H   0  0  0  0  0  0  0  0  0  0  0  0
  -96.6208   19.7033  -10.0466 N   0  0  0  0  0  0  0  0  0  0  0  0
  -97.1160   18.7691  -10.1654 H   0  0  0  0  0  0  0  0  0  0  0  0
  -95.2348   19.7334   -9.8592 C   0  0  0  0  0  0  0  0  0  0  0  0
  -94.6454   19.2998   -8.6900 C   0  0  0  0  0  0  0  0  0  0  0  0
  -93.2900   19.3383   -8.4575 C   0  0  0  0  0  0  0  0  0  0  0  0
  -92.4620   19.8327   -9.4378 C   0  0  0  0  0  0  0  0  0  0  0  0
  -91.0873   19.9034   -9.2800 O   0  0  0  0  0  0  0  0  0  0  0  0
  -93.0268   20.2652  -10.6004 C   0  0  0  0  0  0  0  0  0  0  0  0
  -94.3649   20.2267  -10.8258 C   0  0  0  0  0  0  0  0  0  0  0  0
  -90.4332   19.1812   -9.5241 H   0  0  0  0  0  0  0  0  0  0  0  0
 27 28  1  0  0  0
 28 29  1  0  0  0
 28 30  1  0  0  0
 28 21  1  0  0  0
 21 22  2  0  0  0
 22 23  1  0  0  0
 23 24  2  0  0  0
 24 17  1  0  0  0
 17 18  1  0  0  0
 18 19  2  0  0  0
 18 11  1  0  0  0
 11 12  2  0  0  0
 12 13  1  0  0  0
 13 14  2  0  0  0
 14 15  1  0  0  0
 15 16  2  0  0  0
 14  1  1  0  0  0
  1  2  1  0  0  0
  2  3  1  0  0  0
  3  4  1  0  0  0
  4  5  1  0  0  0
  5  6  1  0  0  0
  6  7  1  0  0  0
  7  8  1  0  0  0
  8  9  1  0  0  0
  9 10  2  0  0  0
  9 31  1  0  0  0
 31 32  2  0  0  0
 32 33  1  0  0  0
 33 34  2  0  0  0
 34 35  1  0  0  0
 35 36  2  0  0  0
 36 37  1  0  0  0
 36 38  1  0  0  0
 38 41  1  0  0  0
 41 43  1  0  0  0
 43 44  2  0  0  0
 44 45  1  0  0  0
 45 46  2  0  0  0
 46 47  1  0  0  0
 46 48  1  0  0  0
 48 49  2  0  0  0
 38 39  2  0  0  0
 24 25  1  0  0  0
 25 26  2  0  0  0
 26 21  1  0  0  0
 16 11  1  0  0  0
  6  1  1  0  0  0
 39 33  1  0  0  0
  8  3  1  0  0  0
 49 43  1  0  0  0
 17 20  1  0  0  0
 37 40  1  0  0  0
 41 42  1  0  0  0
 47 50  1  0  0  0
M  END
> <minimizedAffinity>
-9.69579

> <CNNscore>
0.2096871585

> <CNNaffinity>
6.1047959328

> <CNN_VS>
1.2800973654

> <CNNaffinity_variance>
0.1454974413

$$$$
[H]Oc1c([H])c([H])c(N([H])c2c([H])c(/C([H])=C(\[H])C(=O)N3C([H])([H])[C@@]4([H])N(c5c([H])c([H])c(C(=O)N([H])c6c([H])c([H])c(C(C([H])([H])[H])(C([H])([H])[H])C([H])([H])[H])c([H])c6[H])c([H])c5[H])C([H])([H])[C@]3([H])C([H])([H])C4([H])[H])c([H])c([H])c2O[H])c([H])c1[H]


 50 55  0  0  0  0  0  0  0  0999 V2000
  -93.3843   23.1396   -0.7516 N   0  0  0  0  0  0  0  0  0  0  0  0
  -94.7725   23.6316   -0.9386 C   0  0  0  0  0  0  0  0  0  0  0  0
  -95.6084   22.4210   -0.6048 C   0  0  0  0  0  0  0  0  0  0  0  0
  -95.0391   21.5881    0.5139 C   0  0  0  0  0  0  0  0  0  0  0  0
  -93.6932   20.9918    0.1755 C   0  0  0  0  0  0  0  0  0  0  0  0
  -93.1831   21.7744   -1.0676 C   0  0  0  0  0  0  0  0  0  0  0  0
  -94.1317   21.2694   -2.1916 C   0  0  0  0  0  0  0  0  0  0  0  0
  -95.4741   21.5537   -1.8258 N   0  0  0  0  0  0  0  0  0  0  0  0
  -96.6799   21.1707   -2.4092 C   0  0  0  0  0  0  0  0  0  0  0  0
  -97.7824   21.6303   -1.8169 O   0  0  0  0  0  0  0  0  0  0  0  0
  -90.4178   25.8646    0.5223 C   0  0  0  0  0  0  0  0  0  0  0  0
  -90.9144   24.9488    1.3973 C   0  0  0  0  0  0  0  0  0  0  0  0
  -91.9101   24.0354    1.0246 C   0  0  0  0  0  0  0  0  0  0  0  0
  -92.4284   24.0282   -0.2473 C   0  0  0  0  0  0  0  0  0  0  0  0
  -91.9203   24.9810   -1.1575 C   0  0  0  0  0  0  0  0  0  0  0  0
  -90.9554   25.8564   -0.7774 C   0  0  0  0  0  0  0  0  0  0  0  0
  -88.1570   26.7818    0.0196 N   0  0  0  0  0  0  0  0  0  0  0  0
  -89.3222   26.7913    0.7579 C   0  0  0  0  0  0  0  0  0  0  0  0
  -89.4803   27.6320    1.7115 O   0  0  0  0  0  0  0  0  0  0  0  0
  -87.9969   26.1489   -0.7922 H   0  0  0  0  0  0  0  0  0  0  0  0
  -84.9042   29.3985    0.9760 C   0  0  0  0  0  0  0  0  0  0  0  0
  -85.2469   28.3044    1.7872 C   0  0  0  0  0  0  0  0  0  0  0  0
  -86.2885   27.4750    1.4443 C   0  0  0  0  0  0  0  0  0  0  0  0
  -87.0444   27.6667    0.3024 C   0  0  0  0  0  0  0  0  0  0  0  0
  -86.7239   28.7296   -0.5046 C   0  0  0  0  0  0  0  0  0  0  0  0
  -85.6625   29.5728   -0.1525 C   0  0  0  0  0  0  0  0  0  0  0  0
  -82.5878   29.5090    1.9110 C   0  0  0  0  0  0  0  0  0  0  0  0
  -83.7774   30.2708    1.3885 C   0  0  0  0  0  0  0  0  0  0  0  0
  -84.2070   31.2895    2.4244 C   0  0  0  0  0  0  0  0  0  0  0  0
  -83.2769   31.0930    0.1914 C   0  0  0  0  0  0  0  0  0  0  0  0
  -96.9815   20.3658   -3.5401 C   0  0  0  0  0  0  0  0  0  0  0  0
  -97.5459   20.7382   -4.6503 C   0  0  0  0  0  0  0  0  0  0  0  0
  -97.7793   19.7513   -5.7303 C   0  0  0  0  0  0  0  0  0  0  0  0
  -98.7294   18.7620   -5.5653 C   0  0  0  0  0  0  0  0  0  0  0  0
  -98.9534   17.8541   -6.5952 C   0  0  0  0  0  0  0  0  0  0  0  0
  -98.2384   17.9386   -7.7621 C   0  0  0  0  0  0  0  0  0  0  0  0
  -98.4618   17.0362   -8.7847 O   0  0  0  0  0  0  0  0  0  0  0  0
  -97.2761   18.9097   -7.9746 C   0  0  0  0  0  0  0  0  0  0  0  0
  -97.0899   19.7975   -6.9118 C   0  0  0  0  0  0  0  0  0  0  0  0
  -99.1368   16.2927   -8.7467 H   0  0  0  0  0  0  0  0  0  0  0  0
  -96.5718   19.0385   -9.1704 N   0  0  0  0  0  0  0  0  0  0  0  0
  -97.1321   18.9249  -10.0677 H   0  0  0  0  0  0  0  0  0  0  0  0
  -95.2013   19.3105   -9.2396 C   0  0  0  0  0  0  0  0  0  0  0  0
  -94.6560   20.0655  -10.2569 C   0  0  0  0  0  0  0  0  0  0  0  0
  -93.3115   20.3322  -10.3743 C   0  0  0  0  0  0  0  0  0  0  0  0
  -92.4493   19.8258   -9.4304 C   0  0  0  0  0  0  0  0  0  0  0  0
  -91.0829   20.0508   -9.4787 O   0  0  0  0  0  0  0  0  0  0  0  0
  -92.9704   19.0778   -8.4171 C   0  0  0  0  0  0  0  0  0  0  0  0
  -94.2976   18.8158   -8.3051 C   0  0  0  0  0  0  0  0  0  0  0  0
  -90.6026   20.8239   -9.0537 H   0  0  0  0  0  0  0  0  0  0  0  0
 27 28  1  0  0  0
 28 29  1  0  0  0
 28 30  1  0  0  0
 28 21  1  0  0  0
 21 22  2  0  0  0
 22 23  1  0  0  0
 23 24  2  0  0  0
 24 17  1  0  0  0
 17 18  1  0  0  0
 18 19  2  0  0  0
 18 11  1  0  0  0
 11 12  2  0  0  0
 12 13  1  0  0  0
 13 14  2  0  0  0
 14 15  1  0  0  0
 15 16  2  0  0  0
 14  1  1  0  0  0
  1  2  1  0  0  0
  2  3  1  0  0  0
  3  4  1  0  0  0
  4  5  1  0  0  0
  5  6  1  0  0  0
  6  7  1  0  0  0
  7  8  1  0  0  0
  8  9  1  0  0  0
  9 10  2  0  0  0
  9 31  1  0  0  0
 31 32  2  0  0  0
 32 33  1  0  0  0
 33 34  2  0  0  0
 34 35  1  0  0  0
 35 36  2  0  0  0
 36 37  1  0  0  0
 36 38  1  0  0  0
 38 41  1  0  0  0
 41 43  1  0  0  0
 43 44  2  0  0  0
 44 45  1  0  0  0
 45 46  2  0  0  0
 46 47  1  0  0  0
 46 48  1  0  0  0
 48 49  2  0  0  0
 38 39  2  0  0  0
 24 25  1  0  0  0
 25 26  2  0  0  0
 26 21  1  0  0  0
 16 11  1  0  0  0
  6  1  1  0  0  0
 39 33  1  0  0  0
  8  3  1  0  0  0
 49 43  1  0  0  0
 17 20  1  0  0  0
 37 40  1  0  0  0
 41 42  1  0  0  0
 47 50  1  0  0  0
M  END
> <minimizedAffinity>
-9.10681

> <CNNscore>
0.2080694586

> <CNNaffinity>
6.0523996353

> <CNN_VS>
1.2593195438

> <CNNaffinity_variance>
0.5864656568

$$$$
[H]Oc1c([H])c([H])c(N([H])c2c([H])c(/C([H])=C(\[H])C(=O)N3C([H])([H])[C@@]4([H])N(c5c([H])c([H])c(C(=O)N([H])c6c([H])c([H])c(C(C([H])([H])[H])(C([H])([H])[H])C([H])([H])[H])c([H])c6[H])c([H])c5[H])C([H])([H])[C@]3([H])C([H])([H])C4([H])[H])c([H])c([H])c2O[H])c([H])c1[H]


 50 55  0  0  0  0  0  0  0  0999 V2000
  -89.5123   28.6416   -0.7133 N   0  0  0  0  0  0  0  0  0  0  0  0
  -89.2286   27.9897    0.5900 C   0  0  0  0  0  0  0  0  0  0  0  0
  -89.1505   26.5275    0.2269 C   0  0  0  0  0  0  0  0  0  0  0  0
  -88.5200   26.2755   -1.1177 C   0  0  0  0  0  0  0  0  0  0  0  0
  -89.3125   26.8693   -2.2582 C   0  0  0  0  0  0  0  0  0  0  0  0
  -90.3006   27.8785   -1.6078 C   0  0  0  0  0  0  0  0  0  0  0  0
  -91.3031   26.9400   -0.8782 C   0  0  0  0  0  0  0  0  0  0  0  0
  -90.5904   26.1327    0.0476 N   0  0  0  0  0  0  0  0  0  0  0  0
  -91.0013   25.0465    0.8171 C   0  0  0  0  0  0  0  0  0  0  0  0
  -90.0723   24.5138    1.6113 O   0  0  0  0  0  0  0  0  0  0  0  0
  -87.9720   32.4554   -1.6785 C   0  0  0  0  0  0  0  0  0  0  0  0
  -87.2675   31.6303   -0.8576 C   0  0  0  0  0  0  0  0  0  0  0  0
  -87.7456   30.3629   -0.4970 C   0  0  0  0  0  0  0  0  0  0  0  0
  -88.9528   29.9000   -0.9606 C   0  0  0  0  0  0  0  0  0  0  0  0
  -89.6905   30.7555   -1.8083 C   0  0  0  0  0  0  0  0  0  0  0  0
  -89.2097   31.9787   -2.1465 C   0  0  0  0  0  0  0  0  0  0  0  0
  -88.2888   34.4805   -3.0940 N   0  0  0  0  0  0  0  0  0  0  0  0
  -87.5401   33.7417   -2.2016 C   0  0  0  0  0  0  0  0  0  0  0  0
  -86.4008   34.1682   -1.8000 O   0  0  0  0  0  0  0  0  0  0  0  0
  -89.2383   34.1995   -3.4174 H   0  0  0  0  0  0  0  0  0  0  0  0
  -87.0229   38.2260   -4.7406 C   0  0  0  0  0  0  0  0  0  0  0  0
  -87.7601   38.1446   -3.5479 C   0  0  0  0  0  0  0  0  0  0  0  0
  -88.1392   36.9251   -3.0385 C   0  0  0  0  0  0  0  0  0  0  0  0
  -87.8223   35.7309   -3.6594 C   0  0  0  0  0  0  0  0  0  0  0  0
  -87.1006   35.7893   -4.8254 C   0  0  0  0  0  0  0  0  0  0  0  0
  -86.7161   37.0329   -5.3419 C   0  0  0  0  0  0  0  0  0  0  0  0
  -87.7930   40.3270   -5.8563 C   0  0  0  0  0  0  0  0  0  0  0  0
  -86.6414   39.5634   -5.2570 C   0  0  0  0  0  0  0  0  0  0  0  0
  -85.5234   39.4733   -6.2755 C   0  0  0  0  0  0  0  0  0  0  0  0
  -86.0868   40.4333   -4.1189 C   0  0  0  0  0  0  0  0  0  0  0  0
  -92.2460   24.3713    0.9299 C   0  0  0  0  0  0  0  0  0  0  0  0
  -93.1318   24.1807   -0.0022 C   0  0  0  0  0  0  0  0  0  0  0  0
  -94.3807   23.4440    0.3019 C   0  0  0  0  0  0  0  0  0  0  0  0
  -94.3656   22.0646    0.3760 C   0  0  0  0  0  0  0  0  0  0  0  0
  -95.5406   21.3859    0.6826 C   0  0  0  0  0  0  0  0  0  0  0  0
  -96.7026   22.0780    0.9080 C   0  0  0  0  0  0  0  0  0  0  0  0
  -97.8694   21.4028    1.2126 O   0  0  0  0  0  0  0  0  0  0  0  0
  -96.7690   23.4584    0.8441 C   0  0  0  0  0  0  0  0  0  0  0  0
  -95.5631   24.0929    0.5346 C   0  0  0  0  0  0  0  0  0  0  0  0
  -97.9417   20.4036    1.2912 H   0  0  0  0  0  0  0  0  0  0  0  0
  -97.9300   24.1808    1.1142 N   0  0  0  0  0  0  0  0  0  0  0  0
  -98.6857   24.1649    0.3654 H   0  0  0  0  0  0  0  0  0  0  0  0
  -98.1413   24.8986    2.2961 C   0  0  0  0  0  0  0  0  0  0  0  0
  -98.0150   26.2709    2.3507 C   0  0  0  0  0  0  0  0  0  0  0  0
  -98.1882   27.0093    3.4987 C   0  0  0  0  0  0  0  0  0  0  0  0
  -98.5078   26.3565    4.6659 C   0  0  0  0  0  0  0  0  0  0  0  0
  -98.6991   27.0290    5.8622 O   0  0  0  0  0  0  0  0  0  0  0  0
  -98.6375   25.0001    4.6309 C   0  0  0  0  0  0  0  0  0  0  0  0
  -98.4647   24.2748    3.4965 C   0  0  0  0  0  0  0  0  0  0  0  0
  -99.5735   27.3975    6.1919 H   0  0  0  0  0  0  0  0  0  0  0  0
 27 28  1  0  0  0
 28 29  1  0  0  0
 28 30  1  0  0  0
 28 21  1  0  0  0
 21 22  2  0  0  0
 22 23  1  0  0  0
 23 24  2  0  0  0
 24 17  1  0  0  0
 17 18  1  0  0  0
 18 19  2  0  0  0
 18 11  1  0  0  0
 11 12  2  0  0  0
 12 13  1  0  0  0
 13 14  2  0  0  0
 14 15  1  0  0  0
 15 16  2  0  0  0
 14  1  1  0  0  0
  1  2  1  0  0  0
  2  3  1  0  0  0
  3  4  1  0  0  0
  4  5  1  0  0  0
  5  6  1  0  0  0
  6  7  1  0  0  0
  7  8  1  0  0  0
  8  9  1  0  0  0
  9 10  2  0  0  0
  9 31  1  0  0  0
 31 32  2  0  0  0
 32 33  1  0  0  0
 33 34  2  0  0  0
 34 35  1  0  0  0
 35 36  2  0  0  0
 36 37  1  0  0  0
 36 38  1  0  0  0
 38 41  1  0  0  0
 41 43  1  0  0  0
 43 44  2  0  0  0
 44 45  1  0  0  0
 45 46  2  0  0  0
 46 47  1  0  0  0
 46 48  1  0  0  0
 48 49  2  0  0  0
 38 39  2  0  0  0
 24 25  1  0  0  0
 25 26  2  0  0  0
 26 21  1  0  0  0
 16 11  1  0  0  0
  6  1  1  0  0  0
 39 33  1  0  0  0
  8  3  1  0  0  0
 49 43  1  0  0  0
 17 20  1  0  0  0
 37 40  1  0  0  0
 41 42  1  0  0  0
 47 50  1  0  0  0
M  END
> <minimizedAffinity>
-8.32099

> <CNNscore>
0.1427171379

> <CNNaffinity>
6.1612696648

> <CNN_VS>
0.8793187737

> <CNNaffinity_variance>
0.1225820929

$$$$
[H]Oc1c([H])c([H])c(N([H])c2c([H])c(/C([H])=C(\[H])C(=O)N3C([H])([H])[C@@]4([H])N(c5c([H])c([H])c(C(=O)N([H])c6c([H])c([H])c(C(C([H])([H])[H])(C([H])([H])[H])C([H])([H])[H])c([H])c6[H])c([H])c5[H])C([H])([H])[C@]3([H])C([H])([H])C4([H])[H])c([H])c([H])c2O[H])c([H])c1[H]


 50 55  0  0  0  0  0  0  0  0999 V2000
  -91.6575   30.0913   -2.8415 N   0  0  0  0  0  0  0  0  0  0  0  0
  -91.7616   29.4366   -4.1698 C   0  0  0  0  0  0  0  0  0  0  0  0
  -93.1926   28.9599   -4.2009 C   0  0  0  0  0  0  0  0  0  0  0  0
  -94.1550   29.9050   -3.5303 C   0  0  0  0  0  0  0  0  0  0  0  0
  -93.8818   30.0716   -2.0542 C   0  0  0  0  0  0  0  0  0  0  0  0
  -92.4500   29.5112   -1.8220 C   0  0  0  0  0  0  0  0  0  0  0  0
  -92.6555   27.9819   -2.0146 C   0  0  0  0  0  0  0  0  0  0  0  0
  -93.1777   27.7457   -3.3139 N   0  0  0  0  0  0  0  0  0  0  0  0
  -93.6698   26.5828   -3.9025 C   0  0  0  0  0  0  0  0  0  0  0  0
  -94.0748   26.6997   -5.1674 O   0  0  0  0  0  0  0  0  0  0  0  0
  -89.1962   33.5238   -2.7473 C   0  0  0  0  0  0  0  0  0  0  0  0
  -89.2469   32.6990   -1.6665 C   0  0  0  0  0  0  0  0  0  0  0  0
  -90.0605   31.5578   -1.6458 C   0  0  0  0  0  0  0  0  0  0  0  0
  -90.8449   31.2242   -2.7227 C   0  0  0  0  0  0  0  0  0  0  0  0
  -90.8002   32.0807   -3.8448 C   0  0  0  0  0  0  0  0  0  0  0  0
  -90.0050   33.1805   -3.8456 C   0  0  0  0  0  0  0  0  0  0  0  0
  -88.7348   35.8428   -3.5313 N   0  0  0  0  0  0  0  0  0  0  0  0
  -88.3233   34.6729   -2.9273 C   0  0  0  0  0  0  0  0  0  0  0  0
  -87.1211   34.5490   -2.5024 O   0  0  0  0  0  0  0  0  0  0  0  0
  -89.7111   36.0096   -3.8542 H   0  0  0  0  0  0  0  0  0  0  0  0
  -85.9989   39.0615   -4.2360 C   0  0  0  0  0  0  0  0  0  0  0  0
  -86.0053   37.8996   -5.0249 C   0  0  0  0  0  0  0  0  0  0  0  0
  -86.9064   36.8902   -4.7810 C   0  0  0  0  0  0  0  0  0  0  0  0
  -87.8408   36.9596   -3.7640 C   0  0  0  0  0  0  0  0  0  0  0  0
  -87.8517   38.0882   -2.9829 C   0  0  0  0  0  0  0  0  0  0  0  0
  -86.9324   39.1145   -3.2337 C   0  0  0  0  0  0  0  0  0  0  0  0
  -84.8126   41.0976   -3.3996 C   0  0  0  0  0  0  0  0  0  0  0  0
  -85.0041   40.1219   -4.5309 C   0  0  0  0  0  0  0  0  0  0  0  0
  -85.3566   40.8868   -5.7902 C   0  0  0  0  0  0  0  0  0  0  0  0
  -83.6279   39.4971   -4.8051 C   0  0  0  0  0  0  0  0  0  0  0  0
  -93.8327   25.2591   -3.4136 C   0  0  0  0  0  0  0  0  0  0  0  0
  -93.3702   24.1602   -3.9315 C   0  0  0  0  0  0  0  0  0  0  0  0
  -93.6401   22.8602   -3.2743 C   0  0  0  0  0  0  0  0  0  0  0  0
  -93.7597   22.7956   -1.8995 C   0  0  0  0  0  0  0  0  0  0  0  0
  -94.0338   21.5724   -1.2963 C   0  0  0  0  0  0  0  0  0  0  0  0
  -94.1828   20.4417   -2.0574 C   0  0  0  0  0  0  0  0  0  0  0  0
  -94.4552   19.2269   -1.4572 O   0  0  0  0  0  0  0  0  0  0  0  0
  -94.0711   20.4547   -3.4364 C   0  0  0  0  0  0  0  0  0  0  0  0
  -93.7969   21.7065   -3.9937 C   0  0  0  0  0  0  0  0  0  0  0  0
  -94.5628   19.0960   -0.4667 H   0  0  0  0  0  0  0  0  0  0  0  0
  -94.2637   19.3248   -4.2292 N   0  0  0  0  0  0  0  0  0  0  0  0
  -94.8412   18.5382   -3.8051 H   0  0  0  0  0  0  0  0  0  0  0  0
  -93.7518   19.1874   -5.5239 C   0  0  0  0  0  0  0  0  0  0  0  0
  -92.4377   18.8398   -5.7575 C   0  0  0  0  0  0  0  0  0  0  0  0
  -91.8905   18.7211   -7.0143 C   0  0  0  0  0  0  0  0  0  0  0  0
  -92.6869   18.9573   -8.1101 C   0  0  0  0  0  0  0  0  0  0  0  0
  -92.2104   18.8574   -9.4073 O   0  0  0  0  0  0  0  0  0  0  0  0
  -93.9886   19.3014   -7.8984 C   0  0  0  0  0  0  0  0  0  0  0  0
  -94.5248   19.4187   -6.6568 C   0  0  0  0  0  0  0  0  0  0  0  0
  -92.2161   18.0249   -9.9694 H   0  0  0  0  0  0  0  0  0  0  0  0
 27 28  1  0  0  0
 28 29  1  0  0  0
 28 30  1  0  0  0
 28 21  1  0  0  0
 21 22  2  0  0  0
 22 23  1  0  0  0
 23 24  2  0  0  0
 24 17  1  0  0  0
 17 18  1  0  0  0
 18 19  2  0  0  0
 18 11  1  0  0  0
 11 12  2  0  0  0
 12 13  1  0  0  0
 13 14  2  0  0  0
 14 15  1  0  0  0
 15 16  2  0  0  0
 14  1  1  0  0  0
  1  2  1  0  0  0
  2  3  1  0  0  0
  3  4  1  0  0  0
  4  5  1  0  0  0
  5  6  1  0  0  0
  6  7  1  0  0  0
  7  8  1  0  0  0
  8  9  1  0  0  0
  9 10  2  0  0  0
  9 31  1  0  0  0
 31 32  2  0  0  0
 32 33  1  0  0  0
 33 34  2  0  0  0
 34 35  1  0  0  0
 35 36  2  0  0  0
 36 37  1  0  0  0
 36 38  1  0  0  0
 38 41  1  0  0  0
 41 43  1  0  0  0
 43 44  2  0  0  0
 44 45  1  0  0  0
 45 46  2  0  0  0
 46 47  1  0  0  0
 46 48  1  0  0  0
 48 49  2  0  0  0
 38 39  2  0  0  0
 24 25  1  0  0  0
 25 26  2  0  0  0
 26 21  1  0  0  0
 16 11  1  0  0  0
  6  1  1  0  0  0
 39 33  1  0  0  0
  8  3  1  0  0  0
 49 43  1  0  0  0
 17 20  1  0  0  0
 37 40  1  0  0  0
 41 42  1  0  0  0
 47 50  1  0  0  0
M  END
> <minimizedAffinity>
-8.14144

> <CNNscore>
0.1157098040

> <CNNaffinity>
5.5184078217

> <CNN_VS>
0.6385338902

> <CNNaffinity_variance>
0.1511069685

$$$$
[H]Oc1c([H])c([H])c(N([H])c2c([H])c(/C([H])=C(\[H])C(=O)N3C([H])([H])[C@@]4([H])N(c5c([H])c([H])c(C(=O)N([H])c6c([H])c([H])c(C(C([H])([H])[H])(C([H])([H])[H])C([H])([H])[H])c([H])c6[H])c([H])c5[H])C([H])([H])[C@]3([H])C([H])([H])C4([H])[H])c([H])c([H])c2O[H])c([H])c1[H]


 50 55  0  0  0  0  0  0  0  0999 V2000
  -88.7217   29.4156   -2.1860 N   0  0  0  0  0  0  0  0  0  0  0  0
  -87.3460   29.9732   -2.1584 C   0  0  0  0  0  0  0  0  0  0  0  0
  -87.5617   31.3816   -1.6625 C   0  0  0  0  0  0  0  0  0  0  0  0
  -88.6526   31.4941   -0.6298 C   0  0  0  0  0  0  0  0  0  0  0  0
  -90.0109   31.1085   -1.1663 C   0  0  0  0  0  0  0  0  0  0  0  0
  -89.7415   30.3475   -2.4952 C   0  0  0  0  0  0  0  0  0  0  0  0
  -89.2541   31.4845   -3.4374 C   0  0  0  0  0  0  0  0  0  0  0  0
  -88.1077   32.0982   -2.8665 N   0  0  0  0  0  0  0  0  0  0  0  0
  -87.4051   33.2428   -3.2369 C   0  0  0  0  0  0  0  0  0  0  0  0
  -86.3445   33.5406   -2.4859 O   0  0  0  0  0  0  0  0  0  0  0  0
  -89.5017   25.3613   -1.2904 C   0  0  0  0  0  0  0  0  0  0  0  0
  -88.4322   25.9842   -0.7254 C   0  0  0  0  0  0  0  0  0  0  0  0
  -88.1249   27.3230   -1.0048 C   0  0  0  0  0  0  0  0  0  0  0  0
  -88.8958   28.0647   -1.8661 C   0  0  0  0  0  0  0  0  0  0  0  0
  -90.0037   27.4205   -2.4597 C   0  0  0  0  0  0  0  0  0  0  0  0
  -90.2850   26.1236   -2.1754 C   0  0  0  0  0  0  0  0  0  0  0  0
  -90.4702   23.6394    0.2269 N   0  0  0  0  0  0  0  0  0  0  0  0
  -89.9790   24.0175   -1.0053 C   0  0  0  0  0  0  0  0  0  0  0  0
  -89.9126   23.1721   -1.9656 O   0  0  0  0  0  0  0  0  0  0  0  0
  -90.5852   24.2979    1.0258 H   0  0  0  0  0  0  0  0  0  0  0  0
  -91.8017   19.6730    1.1421 C   0  0  0  0  0  0  0  0  0  0  0  0
  -92.6487   20.6302    0.5599 C   0  0  0  0  0  0  0  0  0  0  0  0
  -92.1858   21.8910    0.2656 C   0  0  0  0  0  0  0  0  0  0  0  0
  -90.8843   22.2819    0.5211 C   0  0  0  0  0  0  0  0  0  0  0  0
  -90.0404   21.3599    1.0882 C   0  0  0  0  0  0  0  0  0  0  0  0
  -90.5148   20.0766    1.3870 C   0  0  0  0  0  0  0  0  0  0  0  0
  -92.4527   18.0445    2.9244 C   0  0  0  0  0  0  0  0  0  0  0  0
  -92.3457   18.3273    1.4489 C   0  0  0  0  0  0  0  0  0  0  0  0
  -91.5326   17.2306    0.7921 C   0  0  0  0  0  0  0  0  0  0  0  0
  -93.7629   18.1842    0.8740 C   0  0  0  0  0  0  0  0  0  0  0  0
  -87.5957   34.1848   -4.2829 C   0  0  0  0  0  0  0  0  0  0  0  0
  -87.3611   35.4629   -4.2511 C   0  0  0  0  0  0  0  0  0  0  0  0
  -87.6190   36.2938   -5.4503 C   0  0  0  0  0  0  0  0  0  0  0  0
  -86.6000   37.0509   -5.9952 C   0  0  0  0  0  0  0  0  0  0  0  0
  -86.8497   37.8107   -7.1335 C   0  0  0  0  0  0  0  0  0  0  0  0
  -88.0943   37.8096   -7.7088 C   0  0  0  0  0  0  0  0  0  0  0  0
  -88.3414   38.5647   -8.8397 O   0  0  0  0  0  0  0  0  0  0  0  0
  -89.1469   37.0696   -7.2002 C   0  0  0  0  0  0  0  0  0  0  0  0
  -88.8449   36.3231   -6.0582 C   0  0  0  0  0  0  0  0  0  0  0  0
  -87.6552   39.1366   -9.3000 H   0  0  0  0  0  0  0  0  0  0  0  0
  -90.4054   37.0210   -7.7970 N   0  0  0  0  0  0  0  0  0  0  0  0
  -91.1148   37.7444   -7.4719 H   0  0  0  0  0  0  0  0  0  0  0  0
  -90.7632   36.0941   -8.7818 C   0  0  0  0  0  0  0  0  0  0  0  0
  -90.8302   36.4345  -10.1166 C   0  0  0  0  0  0  0  0  0  0  0  0
  -91.2035   35.5596  -11.1106 C   0  0  0  0  0  0  0  0  0  0  0  0
  -91.5295   34.2679  -10.7701 C   0  0  0  0  0  0  0  0  0  0  0  0
  -91.9140   33.3280  -11.7127 O   0  0  0  0  0  0  0  0  0  0  0  0
  -91.4683   33.9132   -9.4555 C   0  0  0  0  0  0  0  0  0  0  0  0
  -91.1006   34.7796   -8.4772 C   0  0  0  0  0  0  0  0  0  0  0  0
  -91.2953   32.7126  -12.2103 H   0  0  0  0  0  0  0  0  0  0  0  0
 27 28  1  0  0  0
 28 29  1  0  0  0
 28 30  1  0  0  0
 28 21  1  0  0  0
 21 22  2  0  0  0
 22 23  1  0  0  0
 23 24  2  0  0  0
 24 17  1  0  0  0
 17 18  1  0  0  0
 18 19  2  0  0  0
 18 11  1  0  0  0
 11 12  2  0  0  0
 12 13  1  0  0  0
 13 14  2  0  0  0
 14 15  1  0  0  0
 15 16  2  0  0  0
 14  1  1  0  0  0
  1  2  1  0  0  0
  2  3  1  0  0  0
  3  4  1  0  0  0
  4  5  1  0  0  0
  5  6  1  0  0  0
  6  7  1  0  0  0
  7  8  1  0  0  0
  8  9  1  0  0  0
  9 10  2  0  0  0
  9 31  1  0  0  0
 31 32  2  0  0  0
 32 33  1  0  0  0
 33 34  2  0  0  0
 34 35  1  0  0  0
 35 36  2  0  0  0
 36 37  1  0  0  0
 36 38  1  0  0  0
 38 41  1  0  0  0
 41 43  1  0  0  0
 43 44  2  0  0  0
 44 45  1  0  0  0
 45 46  2  0  0  0
 46 47  1  0  0  0
 46 48  1  0  0  0
 48 49  2  0  0  0
 38 39  2  0  0  0
 24 25  1  0  0  0
 25 26  2  0  0  0
 26 21  1  0  0  0
 16 11  1  0  0  0
  6  1  1  0  0  0
 39 33  1  0  0  0
  8  3  1  0  0  0
 49 43  1  0  0  0
 17 20  1  0  0  0
 37 40  1  0  0  0
 41 42  1  0  0  0
 47 50  1  0  0  0
M  END
> <minimizedAffinity>
-8.86720

> <CNNscore>
0.0767766982

> <CNNaffinity>
5.9928903580

> <CNN_VS>
0.4601143301

> <CNNaffinity_variance>
0.0316956751

$$$$
[H]Oc1c([H])c([H])c(N([H])c2c([H])c(/C([H])=C(\[H])C(=O)N3C([H])([H])[C@@]4([H])N(c5c([H])c([H])c(C(=O)N([H])c6c([H])c([H])c(C(C([H])([H])[H])(C([H])([H])[H])C([H])([H])[H])c([H])c6[H])c([H])c5[H])C([H])([H])[C@]3([H])C([H])([H])C4([H])[H])c([H])c([H])c2O[H])c([H])c1[H]


 50 55  0  0  0  0  0  0  0  0999 V2000
  -88.2585   31.1357   -2.9186 N   0  0  0  0  0  0  0  0  0  0  0  0
  -88.4020   32.3350   -2.0554 C   0  0  0  0  0  0  0  0  0  0  0  0
  -89.3046   33.2304   -2.8675 C   0  0  0  0  0  0  0  0  0  0  0  0
  -90.3624   32.4804   -3.6341 C   0  0  0  0  0  0  0  0  0  0  0  0
  -89.7847   31.5460   -4.6707 C   0  0  0  0  0  0  0  0  0  0  0  0
  -88.2799   31.3915   -4.3107 C   0  0  0  0  0  0  0  0  0  0  0  0
  -87.7048   32.7893   -4.6761 C   0  0  0  0  0  0  0  0  0  0  0  0
  -88.3913   33.7816   -3.9274 N   0  0  0  0  0  0  0  0  0  0  0  0
  -88.3556   35.1721   -4.0062 C   0  0  0  0  0  0  0  0  0  0  0  0
  -89.1224   35.8224   -3.1305 O   0  0  0  0  0  0  0  0  0  0  0  0
  -88.2300   27.3126   -1.1210 C   0  0  0  0  0  0  0  0  0  0  0  0
  -87.3035   28.2387   -0.7537 C   0  0  0  0  0  0  0  0  0  0  0  0
  -87.2641   29.5142   -1.3335 C   0  0  0  0  0  0  0  0  0  0  0  0
  -88.1649   29.8830   -2.3025 C   0  0  0  0  0  0  0  0  0  0  0  0
  -89.1249   28.9228   -2.6914 C   0  0  0  0  0  0  0  0  0  0  0  0
  -89.1470   27.6933   -2.1171 C   0  0  0  0  0  0  0  0  0  0  0  0
  -89.5700   25.2471   -0.7423 N   0  0  0  0  0  0  0  0  0  0  0  0
  -88.4350   26.0010   -0.5272 C   0  0  0  0  0  0  0  0  0  0  0  0
  -87.5007   25.5661    0.2336 O   0  0  0  0  0  0  0  0  0  0  0  0
  -90.3376   25.5356   -1.3848 H   0  0  0  0  0  0  0  0  0  0  0  0
  -90.1994   21.5228    1.2767 C   0  0  0  0  0  0  0  0  0  0  0  0
  -90.6269   22.7472    1.8160 C   0  0  0  0  0  0  0  0  0  0  0  0
  -90.4218   23.9241    1.1354 C   0  0  0  0  0  0  0  0  0  0  0  0
  -89.7945   23.9693   -0.0961 C   0  0  0  0  0  0  0  0  0  0  0  0
  -89.3709   22.7829   -0.6408 C   0  0  0  0  0  0  0  0  0  0  0  0
  -89.5812   21.5857    0.0549 C   0  0  0  0  0  0  0  0  0  0  0  0
  -91.3534   19.3060    1.3560 C   0  0  0  0  0  0  0  0  0  0  0  0
  -90.4355   20.2785    2.0491 C   0  0  0  0  0  0  0  0  0  0  0  0
  -90.9785   20.5719    3.4327 C   0  0  0  0  0  0  0  0  0  0  0  0
  -89.1099   19.5376    2.2801 C   0  0  0  0  0  0  0  0  0  0  0  0
  -87.6476   36.0636   -4.8557 C   0  0  0  0  0  0  0  0  0  0  0  0
  -88.1024   37.1332   -5.4378 C   0  0  0  0  0  0  0  0  0  0  0  0
  -87.2084   37.9487   -6.2926 C   0  0  0  0  0  0  0  0  0  0  0  0
  -87.2924   37.8498   -7.6679 C   0  0  0  0  0  0  0  0  0  0  0  0
  -86.4616   38.6362   -8.4595 C   0  0  0  0  0  0  0  0  0  0  0  0
  -85.5675   39.5002   -7.8816 C   0  0  0  0  0  0  0  0  0  0  0  0
  -84.7427   40.2812   -8.6688 O   0  0  0  0  0  0  0  0  0  0  0  0
  -85.4449   39.6343   -6.5100 C   0  0  0  0  0  0  0  0  0  0  0  0
  -86.3017   38.8246   -5.7597 C   0  0  0  0  0  0  0  0  0  0  0  0
  -84.7451   40.2732   -9.6737 H   0  0  0  0  0  0  0  0  0  0  0  0
  -84.5741   40.5392   -5.9056 N   0  0  0  0  0  0  0  0  0  0  0  0
  -84.8798   41.5582   -5.8926 H   0  0  0  0  0  0  0  0  0  0  0  0
  -83.3544   40.1748   -5.3254 C   0  0  0  0  0  0  0  0  0  0  0  0
  -82.6596   41.0238   -4.4896 C   0  0  0  0  0  0  0  0  0  0  0  0
  -81.4457   40.7128   -3.9217 C   0  0  0  0  0  0  0  0  0  0  0  0
  -80.8807   39.4885   -4.1915 C   0  0  0  0  0  0  0  0  0  0  0  0
  -79.6623   39.1012   -3.6575 O   0  0  0  0  0  0  0  0  0  0  0  0
  -81.5535   38.6360   -5.0151 C   0  0  0  0  0  0  0  0  0  0  0  0
  -82.7506   38.9468   -5.5746 C   0  0  0  0  0  0  0  0  0  0  0  0
  -79.5329   38.6221   -2.7841 H   0  0  0  0  0  0  0  0  0  0  0  0
 27 28  1  0  0  0
 28 29  1  0  0  0
 28 30  1  0  0  0
 28 21  1  0  0  0
 21 22  2  0  0  0
 22 23  1  0  0  0
 23 24  2  0  0  0
 24 17  1  0  0  0
 17 18  1  0  0  0
 18 19  2  0  0  0
 18 11  1  0  0  0
 11 12  2  0  0  0
 12 13  1  0  0  0
 13 14  2  0  0  0
 14 15  1  0  0  0
 15 16  2  0  0  0
 14  1  1  0  0  0
  1  2  1  0  0  0
  2  3  1  0  0  0
  3  4  1  0  0  0
  4  5  1  0  0  0
  5  6  1  0  0  0
  6  7  1  0  0  0
  7  8  1  0  0  0
  8  9  1  0  0  0
  9 10  2  0  0  0
  9 31  1  0  0  0
 31 32  2  0  0  0
 32 33  1  0  0  0
 33 34  2  0  0  0
 34 35  1  0  0  0
 35 36  2  0  0  0
 36 37  1  0  0  0
 36 38  1  0  0  0
 38 41  1  0  0  0
 41 43  1  0  0  0
 43 44  2  0  0  0
 44 45  1  0  0  0
 45 46  2  0  0  0
 46 47  1  0  0  0
 46 48  1  0  0  0
 48 49  2  0  0  0
 38 39  2  0  0  0
 24 25  1  0  0  0
 25 26  2  0  0  0
 26 21  1  0  0  0
 16 11  1  0  0  0
  6  1  1  0  0  0
 39 33  1  0  0  0
  8  3  1  0  0  0
 49 43  1  0  0  0
 17 20  1  0  0  0
 37 40  1  0  0  0
 41 42  1  0  0  0
 47 50  1  0  0  0
M  END
> <minimizedAffinity>
-8.20231

> <CNNscore>
0.0756472349

> <CNNaffinity>
5.8896589279

> <CNN_VS>
0.4455364048

> <CNNaffinity_variance>
0.1096481830

$$$$
[H]Oc1c([H])c([H])c(N([H])c2c([H])c(/C([H])=C(\[H])C(=O)N3C([H])([H])[C@@]4([H])N(c5c([H])c([H])c(C(=O)N([H])c6c([H])c([H])c(C(C([H])([H])[H])(C([H])([H])[H])C([H])([H])[H])c([H])c6[H])c([H])c5[H])C([H])([H])[C@]3([H])C([H])([H])C4([H])[H])c([H])c([H])c2O[H])c([H])c1[H]


 50 55  0  0  0  0  0  0  0  0999 V2000
  -88.5200   29.3193   -1.5547 N   0  0  0  0  0  0  0  0  0  0  0  0
  -87.3483   30.0417   -0.9985 C   0  0  0  0  0  0  0  0  0  0  0  0
  -87.8912   31.4276   -0.7523 C   0  0  0  0  0  0  0  0  0  0  0  0
  -89.3226   31.4373   -0.2834 C   0  0  0  0  0  0  0  0  0  0  0  0
  -90.2793   30.8719   -1.3063 C   0  0  0  0  0  0  0  0  0  0  0  0
  -89.3977   30.1092   -2.3354 C   0  0  0  0  0  0  0  0  0  0  0  0
  -88.6703   31.2680   -3.0744 C   0  0  0  0  0  0  0  0  0  0  0  0
  -87.9412   32.0347   -2.1271 N   0  0  0  0  0  0  0  0  0  0  0  0
  -87.2638   33.2448   -2.2594 C   0  0  0  0  0  0  0  0  0  0  0  0
  -86.6575   33.6932   -1.1599 O   0  0  0  0  0  0  0  0  0  0  0  0
  -89.2523   25.2545   -0.6660 C   0  0  0  0  0  0  0  0  0  0  0  0
  -88.2478   25.9149   -0.0290 C   0  0  0  0  0  0  0  0  0  0  0  0
  -87.9576   27.2587   -0.3023 C   0  0  0  0  0  0  0  0  0  0  0  0
  -88.6802   27.9676   -1.2306 C   0  0  0  0  0  0  0  0  0  0  0  0
  -89.7201   27.2845   -1.8989 C   0  0  0  0  0  0  0  0  0  0  0  0
  -89.9859   25.9833   -1.6193 C   0  0  0  0  0  0  0  0  0  0  0  0
  -90.2181   23.5043    0.8204 N   0  0  0  0  0  0  0  0  0  0  0  0
  -89.7121   23.9007   -0.4001 C   0  0  0  0  0  0  0  0  0  0  0  0
  -89.6152   23.0646   -1.3659 O   0  0  0  0  0  0  0  0  0  0  0  0
  -90.3577   24.1542    1.6224 H   0  0  0  0  0  0  0  0  0  0  0  0
  -91.2727   19.4292    1.6101 C   0  0  0  0  0  0  0  0  0  0  0  0
  -90.0736   19.9945    2.0741 C   0  0  0  0  0  0  0  0  0  0  0  0
  -89.7714   21.3105    1.8150 C   0  0  0  0  0  0  0  0  0  0  0  0
  -90.6147   22.1378    1.0963 C   0  0  0  0  0  0  0  0  0  0  0  0
  -91.7924   21.6043    0.6358 C   0  0  0  0  0  0  0  0  0  0  0  0
  -92.0974   20.2635    0.9011 C   0  0  0  0  0  0  0  0  0  0  0  0
  -91.8362   17.1779    0.6792 C   0  0  0  0  0  0  0  0  0  0  0  0
  -91.5543   18.0032    1.9072 C   0  0  0  0  0  0  0  0  0  0  0  0
  -92.7041   17.8499    2.8816 C   0  0  0  0  0  0  0  0  0  0  0  0
  -90.3448   17.3564    2.5987 C   0  0  0  0  0  0  0  0  0  0  0  0
  -87.0832   34.1239   -3.3605 C   0  0  0  0  0  0  0  0  0  0  0  0
  -87.5323   35.3369   -3.4883 C   0  0  0  0  0  0  0  0  0  0  0  0
  -87.2383   36.1104   -4.7172 C   0  0  0  0  0  0  0  0  0  0  0  0
  -87.8296   35.7531   -5.9135 C   0  0  0  0  0  0  0  0  0  0  0  0
  -87.5612   36.5001   -7.0560 C   0  0  0  0  0  0  0  0  0  0  0  0
  -86.7178   37.5795   -6.9966 C   0  0  0  0  0  0  0  0  0  0  0  0
  -86.4520   38.3211   -8.1322 O   0  0  0  0  0  0  0  0  0  0  0  0
  -86.1009   37.9761   -5.8235 C   0  0  0  0  0  0  0  0  0  0  0  0
  -86.4036   37.1951   -4.7051 C   0  0  0  0  0  0  0  0  0  0  0  0
  -86.8449   38.1314   -9.0374 H   0  0  0  0  0  0  0  0  0  0  0  0
  -85.2767   39.0965   -5.7347 N   0  0  0  0  0  0  0  0  0  0  0  0
  -85.7512   40.0193   -5.4993 H   0  0  0  0  0  0  0  0  0  0  0  0
  -83.8917   39.0598   -5.9287 C   0  0  0  0  0  0  0  0  0  0  0  0
  -83.0218   38.6972   -4.9217 C   0  0  0  0  0  0  0  0  0  0  0  0
  -81.6536   38.6746   -5.0651 C   0  0  0  0  0  0  0  0  0  0  0  0
  -81.1071   39.0291   -6.2762 C   0  0  0  0  0  0  0  0  0  0  0  0
  -79.7397   39.0307   -6.4996 O   0  0  0  0  0  0  0  0  0  0  0  0
  -81.9517   39.3896   -7.2833 C   0  0  0  0  0  0  0  0  0  0  0  0
  -83.3013   39.4118   -7.1377 C   0  0  0  0  0  0  0  0  0  0  0  0
  -79.2015   38.2516   -6.8348 H   0  0  0  0  0  0  0  0  0  0  0  0
 27 28  1  0  0  0
 28 29  1  0  0  0
 28 30  1  0  0  0
 28 21  1  0  0  0
 21 22  2  0  0  0
 22 23  1  0  0  0
 23 24  2  0  0  0
 24 17  1  0  0  0
 17 18  1  0  0  0
 18 19  2  0  0  0
 18 11  1  0  0  0
 11 12  2  0  0  0
 12 13  1  0  0  0
 13 14  2  0  0  0
 14 15  1  0  0  0
 15 16  2  0  0  0
 14  1  1  0  0  0
  1  2  1  0  0  0
  2  3  1  0  0  0
  3  4  1  0  0  0
  4  5  1  0  0  0
  5  6  1  0  0  0
  6  7  1  0  0  0
  7  8  1  0  0  0
  8  9  1  0  0  0
  9 10  2  0  0  0
  9 31  1  0  0  0
 31 32  2  0  0  0
 32 33  1  0  0  0
 33 34  2  0  0  0
 34 35  1  0  0  0
 35 36  2  0  0  0
 36 37  1  0  0  0
 36 38  1  0  0  0
 38 41  1  0  0  0
 41 43  1  0  0  0
 43 44  2  0  0  0
 44 45  1  0  0  0
 45 46  2  0  0  0
 46 47  1  0  0  0
 46 48  1  0  0  0
 48 49  2  0  0  0
 38 39  2  0  0  0
 24 25  1  0  0  0
 25 26  2  0  0  0
 26 21  1  0  0  0
 16 11  1  0  0  0
  6  1  1  0  0  0
 39 33  1  0  0  0
  8  3  1  0  0  0
 49 43  1  0  0  0
 17 20  1  0  0  0
 37 40  1  0  0  0
 41 42  1  0  0  0
 47 50  1  0  0  0
M  END
> <minimizedAffinity>
-9.62846

> <CNNscore>
0.0753308013

> <CNNaffinity>
6.0235772133

> <CNN_VS>
0.4537608922

> <CNNaffinity_variance>
0.0457078069

$$$$
[H]OC(=O)C([H])([H])C([H])([H])[C@@]([H])(C(=O)N([H])[C@]([H])(C(=O)N([H])[C@]([H])(C(=O)OC([H])([H])c1c([H])c([H])c([H])c([H])c1[H])C([H])([H])C([H])([H])C([H])([H])C([H])([H])N([H])[H])[C@@]([H])(C([H])([H])[H])C([H])([H])C([H])([H])[H])N([H])C(=O)OC([H])([H])c1c([H])c([H])c([H])c([H])c1[H]


 50 51  0  0  0  0  0  0  0  0999 V2000
  -87.9142   28.3829   -2.1208 C   0  0  0  0  0  0  0  0  0  0  0  0
  -88.1452   29.8708   -2.1657 N   0  0  0  0  0  0  0  0  0  0  0  0
  -87.9839   30.6314   -3.3091 C   0  0  0  0  0  0  0  0  0  0  0  0
  -87.6473   30.1397   -4.3934 O   0  0  0  0  0  0  0  0  0  0  0  0
  -88.4358   30.3102   -1.2699 H   0  0  0  0  0  0  0  0  0  0  0  0
  -88.2216   32.1178   -3.2471 C   0  0  0  0  0  0  0  0  0  0  0  0
  -87.1329   32.8241   -2.6312 N   0  0  0  0  0  0  0  0  0  0  0  0
  -87.0258   32.9415   -1.2358 C   0  0  0  0  0  0  0  0  0  0  0  0
  -87.9177   32.3933   -0.4964 O   0  0  0  0  0  0  0  0  0  0  0  0
  -86.4102   33.2566   -3.2625 H   0  0  0  0  0  0  0  0  0  0  0  0
  -86.0141   33.6117   -0.6031 O   0  0  0  0  0  0  0  0  0  0  0  0
  -84.6515   33.3501   -0.6989 C   0  0  0  0  0  0  0  0  0  0  0  0
  -84.2457   32.2527    0.2058 C   0  0  0  0  0  0  0  0  0  0  0  0
  -84.9632   31.8318    1.3002 C   0  0  0  0  0  0  0  0  0  0  0  0
  -84.5837   30.8076    2.1239 C   0  0  0  0  0  0  0  0  0  0  0  0
  -83.4168   30.1337    1.8725 C   0  0  0  0  0  0  0  0  0  0  0  0
  -82.6631   30.5313    0.7740 C   0  0  0  0  0  0  0  0  0  0  0  0
  -83.0593   31.5656   -0.0468 C   0  0  0  0  0  0  0  0  0  0  0  0
  -88.4923   32.6317   -4.6283 C   0  0  0  0  0  0  0  0  0  0  0  0
  -89.8505   33.2722   -4.7765 C   0  0  0  0  0  0  0  0  0  0  0  0
  -89.7278   34.7230   -4.5512 C   0  0  0  0  0  0  0  0  0  0  0  0
  -90.2073   35.6805   -5.4349 O   0  0  0  0  0  0  0  0  0  0  0  0
  -89.1645   35.1416   -3.5114 O   0  0  0  0  0  0  0  0  0  0  0  0
  -89.7336   36.5119   -5.6913 H   0  0  0  0  0  0  0  0  0  0  0  0
  -89.1768   27.7059   -2.3188 C   0  0  0  0  0  0  0  0  0  0  0  0
  -90.0306   28.2708   -3.0993 O   0  0  0  0  0  0  0  0  0  0  0  0
  -89.6384   26.5060   -1.7997 N   0  0  0  0  0  0  0  0  0  0  0  0
  -89.0745   25.9410   -1.1485 H   0  0  0  0  0  0  0  0  0  0  0  0
  -91.0061   25.9502   -2.1667 C   0  0  0  0  0  0  0  0  0  0  0  0
  -91.9034   26.6357   -1.2471 C   0  0  0  0  0  0  0  0  0  0  0  0
  -92.9600   27.2183   -1.7213 O   0  0  0  0  0  0  0  0  0  0  0  0
  -91.7445   26.7272    0.0946 O   0  0  0  0  0  0  0  0  0  0  0  0
  -91.3255   27.8051    0.8308 C   0  0  0  0  0  0  0  0  0  0  0  0
  -90.7877   27.3718    2.1464 C   0  0  0  0  0  0  0  0  0  0  0  0
  -90.2555   26.1409    2.3584 C   0  0  0  0  0  0  0  0  0  0  0  0
  -89.7553   25.7743    3.6117 C   0  0  0  0  0  0  0  0  0  0  0  0
  -89.7925   26.6572    4.6646 C   0  0  0  0  0  0  0  0  0  0  0  0
  -90.3300   27.9160    4.4746 C   0  0  0  0  0  0  0  0  0  0  0  0
  -90.8173   28.2620    3.2357 C   0  0  0  0  0  0  0  0  0  0  0  0
  -90.8010   24.5058   -2.1480 C   0  0  0  0  0  0  0  0  0  0  0  0
  -89.8371   23.8008   -1.3125 C   0  0  0  0  0  0  0  0  0  0  0  0
  -90.1376   23.2799    0.0235 C   0  0  0  0  0  0  0  0  0  0  0  0
  -89.9786   21.7805    0.1786 C   0  0  0  0  0  0  0  0  0  0  0  0
  -88.5703   21.4611    0.0734 N   0  0  0  0  0  0  0  0  0  0  0  0
  -88.3908   20.4579   -0.0692 H   0  0  0  0  0  0  0  0  0  0  0  0
  -88.0442   22.1138   -0.5195 H   0  0  0  0  0  0  0  0  0  0  0  0
  -87.1423   28.1305   -0.8697 C   0  0  0  0  0  0  0  0  0  0  0  0
  -85.8404   28.9221   -0.8525 C   0  0  0  0  0  0  0  0  0  0  0  0
  -87.0905   28.0481    1.6608 C   0  0  0  0  0  0  0  0  0  0  0  0
  -87.8272   28.4632    0.4242 C   0  0  0  0  0  0  0  0  0  0  0  0
 49 50  1  0  0  0
 50 47  1  0  0  0
 47 48  1  0  0  0
 47  1  1  0  0  0
  1  2  1  0  0  0
  2  3  1  0  0  0
  3  4  2  0  0  0
  3  6  1  0  0  0
  6 19  1  0  0  0
 19 20  1  0  0  0
 20 21  1  0  0  0
 21 22  1  0  0  0
 21 23  2  0  0  0
  6  7  1  0  0  0
  7  8  1  0  0  0
  8  9  2  0  0  0
  8 11  1  0  0  0
 11 12  1  0  0  0
 12 13  1  0  0  0
 13 14  2  0  0  0
 14 15  1  0  0  0
 15 16  2  0  0  0
 16 17  1  0  0  0
 17 18  2  0  0  0
  1 25  1  0  0  0
 25 26  2  0  0  0
 25 27  1  0  0  0
 27 29  1  0  0  0
 29 40  1  0  0  0
 40 41  1  0  0  0
 41 42  1  0  0  0
 42 43  1  0  0  0
 43 44  1  0  0  0
 29 30  1  0  0  0
 30 31  2  0  0  0
 30 32  1  0  0  0
 32 33  1  0  0  0
 33 34  1  0  0  0
 34 35  2  0  0  0
 35 36  1  0  0  0
 36 37  2  0  0  0
 37 38  1  0  0  0
 38 39  2  0  0  0
 18 13  1  0  0  0
 39 34  1  0  0  0
  2  5  1  0  0  0
 22 24  1  0  0  0
  7 10  1  0  0  0
 27 28  1  0  0  0
 44 45  1  0  0  0
 44 46  1  0  0  0
M  END
> <minimizedAffinity>
-8.15744

> <CNNscore>
0.3790081143

> <CNNaffinity>
6.9640998840

> <CNN_VS>
2.6394503117

> <CNNaffinity_variance>
0.8031491041

$$$$
[H]OC(=O)C([H])([H])C([H])([H])[C@@]([H])(C(=O)N([H])[C@]([H])(C(=O)N([H])[C@]([H])(C(=O)OC([H])([H])c1c([H])c([H])c([H])c([H])c1[H])C([H])([H])C([H])([H])C([H])([H])C([H])([H])N([H])[H])[C@@]([H])(C([H])([H])[H])C([H])([H])C([H])([H])[H])N([H])C(=O)OC([H])([H])c1c([H])c([H])c([H])c([H])c1[H]


 50 51  0  0  0  0  0  0  0  0999 V2000
  -88.0936   28.6926   -2.4169 C   0  0  0  0  0  0  0  0  0  0  0  0
  -88.0788   30.1989   -2.4225 N   0  0  0  0  0  0  0  0  0  0  0  0
  -87.9783   30.9543   -3.5763 C   0  0  0  0  0  0  0  0  0  0  0  0
  -87.9054   30.4444   -4.7012 O   0  0  0  0  0  0  0  0  0  0  0  0
  -88.1458   30.6550   -1.4910 H   0  0  0  0  0  0  0  0  0  0  0  0
  -87.9532   32.4573   -3.4754 C   0  0  0  0  0  0  0  0  0  0  0  0
  -86.7867   32.9438   -2.7928 N   0  0  0  0  0  0  0  0  0  0  0  0
  -86.7932   33.1984   -1.4117 C   0  0  0  0  0  0  0  0  0  0  0  0
  -87.8656   32.9790   -0.7450 O   0  0  0  0  0  0  0  0  0  0  0  0
  -85.9175   33.1064   -3.3638 H   0  0  0  0  0  0  0  0  0  0  0  0
  -85.7116   33.6711   -0.7191 O   0  0  0  0  0  0  0  0  0  0  0  0
  -84.4026   33.2076   -0.7972 C   0  0  0  0  0  0  0  0  0  0  0  0
  -84.1437   32.1456    0.1990 C   0  0  0  0  0  0  0  0  0  0  0  0
  -84.9353   31.8850    1.2922 C   0  0  0  0  0  0  0  0  0  0  0  0
  -84.6922   30.8922    2.2014 C   0  0  0  0  0  0  0  0  0  0  0  0
  -83.5961   30.0841    2.0445 C   0  0  0  0  0  0  0  0  0  0  0  0
  -82.7709   30.3176    0.9502 C   0  0  0  0  0  0  0  0  0  0  0  0
  -83.0296   31.3224    0.0425 C   0  0  0  0  0  0  0  0  0  0  0  0
  -88.0656   33.0454   -4.8489 C   0  0  0  0  0  0  0  0  0  0  0  0
  -88.6150   34.4508   -4.8586 C   0  0  0  0  0  0  0  0  0  0  0  0
  -87.5287   35.3921   -5.1821 C   0  0  0  0  0  0  0  0  0  0  0  0
  -86.5523   35.7790   -4.2740 O   0  0  0  0  0  0  0  0  0  0  0  0
  -87.4596   35.8840   -6.3340 O   0  0  0  0  0  0  0  0  0  0  0  0
  -86.2069   36.7007   -4.1620 H   0  0  0  0  0  0  0  0  0  0  0  0
  -89.4647   28.2372   -2.3503 C   0  0  0  0  0  0  0  0  0  0  0  0
  -90.3411   29.0727   -1.9134 O   0  0  0  0  0  0  0  0  0  0  0  0
  -90.0176   27.0137   -2.6964 N   0  0  0  0  0  0  0  0  0  0  0  0
  -89.4422   26.2364   -3.0514 H   0  0  0  0  0  0  0  0  0  0  0  0
  -91.5109   26.7494   -2.5766 C   0  0  0  0  0  0  0  0  0  0  0  0
  -91.5930   25.7800   -1.4929 C   0  0  0  0  0  0  0  0  0  0  0  0
  -91.7900   24.5320   -1.7832 O   0  0  0  0  0  0  0  0  0  0  0  0
  -91.4780   26.0564   -0.1722 O   0  0  0  0  0  0  0  0  0  0  0  0
  -90.6410   25.4807    0.7484 C   0  0  0  0  0  0  0  0  0  0  0  0
  -90.5179   26.3332    1.9591 C   0  0  0  0  0  0  0  0  0  0  0  0
  -89.9314   25.9067    3.1070 C   0  0  0  0  0  0  0  0  0  0  0  0
  -89.8316   26.7431    4.2232 C   0  0  0  0  0  0  0  0  0  0  0  0
  -90.3291   28.0239    4.1836 C   0  0  0  0  0  0  0  0  0  0  0  0
  -90.9313   28.4814    3.0271 C   0  0  0  0  0  0  0  0  0  0  0  0
  -91.0213   27.6469    1.9373 C   0  0  0  0  0  0  0  0  0  0  0  0
  -91.9122   26.4459   -3.9461 C   0  0  0  0  0  0  0  0  0  0  0  0
  -92.7415   27.2961   -4.7908 C   0  0  0  0  0  0  0  0  0  0  0  0
  -93.0681   28.6901   -4.4802 C   0  0  0  0  0  0  0  0  0  0  0  0
  -92.4450   29.7168   -5.4050 C   0  0  0  0  0  0  0  0  0  0  0  0
  -91.1557   30.0913   -4.8629 N   0  0  0  0  0  0  0  0  0  0  0  0
  -90.7686   30.9446   -5.2882 H   0  0  0  0  0  0  0  0  0  0  0  0
  -91.1037   30.0199   -3.8400 H   0  0  0  0  0  0  0  0  0  0  0  0
  -87.1384   28.2823   -1.3472 C   0  0  0  0  0  0  0  0  0  0  0  0
  -86.3929   29.4838   -0.7792 C   0  0  0  0  0  0  0  0  0  0  0  0
  -87.3116   28.1278    1.1746 C   0  0  0  0  0  0  0  0  0  0  0  0
  -87.7211   27.5767   -0.1569 C   0  0  0  0  0  0  0  0  0  0  0  0
 49 50  1  0  0  0
 50 47  1  0  0  0
 47 48  1  0  0  0
 47  1  1  0  0  0
  1  2  1  0  0  0
  2  3  1  0  0  0
  3  4  2  0  0  0
  3  6  1  0  0  0
  6 19  1  0  0  0
 19 20  1  0  0  0
 20 21  1  0  0  0
 21 22  1  0  0  0
 21 23  2  0  0  0
  6  7  1  0  0  0
  7  8  1  0  0  0
  8  9  2  0  0  0
  8 11  1  0  0  0
 11 12  1  0  0  0
 12 13  1  0  0  0
 13 14  2  0  0  0
 14 15  1  0  0  0
 15 16  2  0  0  0
 16 17  1  0  0  0
 17 18  2  0  0  0
  1 25  1  0  0  0
 25 26  2  0  0  0
 25 27  1  0  0  0
 27 29  1  0  0  0
 29 40  1  0  0  0
 40 41  1  0  0  0
 41 42  1  0  0  0
 42 43  1  0  0  0
 43 44  1  0  0  0
 29 30  1  0  0  0
 30 31  2  0  0  0
 30 32  1  0  0  0
 32 33  1  0  0  0
 33 34  1  0  0  0
 34 35  2  0  0  0
 35 36  1  0  0  0
 36 37  2  0  0  0
 37 38  1  0  0  0
 38 39  2  0  0  0
 18 13  1  0  0  0
 39 34  1  0  0  0
  2  5  1  0  0  0
 22 24  1  0  0  0
  7 10  1  0  0  0
 27 28  1  0  0  0
 44 45  1  0  0  0
 44 46  1  0  0  0
M  END
> <minimizedAffinity>
-8.20534

> <CNNscore>
0.2741658390

> <CNNaffinity>
6.7759003639

> <CNN_VS>
1.8577203751

> <CNNaffinity_variance>
0.5656660795

$$$$
[H]OC(=O)C([H])([H])C([H])([H])[C@@]([H])(C(=O)N([H])[C@]([H])(C(=O)N([H])[C@]([H])(C(=O)OC([H])([H])c1c([H])c([H])c([H])c([H])c1[H])C([H])([H])C([H])([H])C([H])([H])C([H])([H])N([H])[H])[C@@]([H])(C([H])([H])[H])C([H])([H])C([H])([H])[H])N([H])C(=O)OC([H])([H])c1c([H])c([H])c([H])c([H])c1[H]


 50 51  0  0  0  0  0  0  0  0999 V2000
  -88.2436   28.7489   -2.6965 C   0  0  0  0  0  0  0  0  0  0  0  0
  -88.1195   30.2497   -2.6587 N   0  0  0  0  0  0  0  0  0  0  0  0
  -88.0324   31.0345   -3.7936 C   0  0  0  0  0  0  0  0  0  0  0  0
  -88.0630   30.5591   -4.9354 O   0  0  0  0  0  0  0  0  0  0  0  0
  -88.0982   30.6776   -1.7118 H   0  0  0  0  0  0  0  0  0  0  0  0
  -87.8921   32.5277   -3.6502 C   0  0  0  0  0  0  0  0  0  0  0  0
  -86.5694   32.9205   -3.2508 N   0  0  0  0  0  0  0  0  0  0  0  0
  -86.2238   33.0776   -1.8987 C   0  0  0  0  0  0  0  0  0  0  0  0
  -87.1105   32.8528   -1.0010 O   0  0  0  0  0  0  0  0  0  0  0  0
  -85.8590   33.0898   -4.0088 H   0  0  0  0  0  0  0  0  0  0  0  0
  -84.9816   33.4592   -1.4693 O   0  0  0  0  0  0  0  0  0  0  0  0
  -84.5796   33.6648   -0.1538 C   0  0  0  0  0  0  0  0  0  0  0  0
  -84.0869   32.4145    0.4637 C   0  0  0  0  0  0  0  0  0  0  0  0
  -84.7841   31.6641    1.3805 C   0  0  0  0  0  0  0  0  0  0  0  0
  -84.3229   30.5026    1.9369 C   0  0  0  0  0  0  0  0  0  0  0  0
  -83.0884   30.0248    1.5808 C   0  0  0  0  0  0  0  0  0  0  0  0
  -82.3528   30.7572    0.6559 C   0  0  0  0  0  0  0  0  0  0  0  0
  -82.8316   31.9263    0.1040 C   0  0  0  0  0  0  0  0  0  0  0  0
  -88.2910   33.1860   -4.9357 C   0  0  0  0  0  0  0  0  0  0  0  0
  -88.7205   34.6227   -4.7682 C   0  0  0  0  0  0  0  0  0  0  0  0
  -87.6194   35.5082   -5.1855 C   0  0  0  0  0  0  0  0  0  0  0  0
  -86.5113   35.7804   -4.3945 O   0  0  0  0  0  0  0  0  0  0  0  0
  -87.6611   36.0575   -6.3125 O   0  0  0  0  0  0  0  0  0  0  0  0
  -86.0898   36.6702   -4.2854 H   0  0  0  0  0  0  0  0  0  0  0  0
  -89.6255   28.3865   -2.4720 C   0  0  0  0  0  0  0  0  0  0  0  0
  -90.4134   29.3103   -2.0443 O   0  0  0  0  0  0  0  0  0  0  0  0
  -90.2718   27.1732   -2.6527 N   0  0  0  0  0  0  0  0  0  0  0  0
  -89.7729   26.3332   -2.9793 H   0  0  0  0  0  0  0  0  0  0  0  0
  -91.7604   27.0131   -2.3831 C   0  0  0  0  0  0  0  0  0  0  0  0
  -92.3786   27.5742   -3.5762 C   0  0  0  0  0  0  0  0  0  0  0  0
  -93.2620   28.5133   -3.4407 O   0  0  0  0  0  0  0  0  0  0  0  0
  -92.1152   27.2066   -4.8527 O   0  0  0  0  0  0  0  0  0  0  0  0
  -92.6485   27.7099   -6.0110 C   0  0  0  0  0  0  0  0  0  0  0  0
  -93.8226   26.9097   -6.4456 C   0  0  0  0  0  0  0  0  0  0  0  0
  -94.9503   27.4683   -6.9550 C   0  0  0  0  0  0  0  0  0  0  0  0
  -96.0318   26.6782   -7.3570 C   0  0  0  0  0  0  0  0  0  0  0  0
  -95.9776   25.3094   -7.2441 C   0  0  0  0  0  0  0  0  0  0  0  0
  -94.8410   24.7166   -6.7280 C   0  0  0  0  0  0  0  0  0  0  0  0
  -93.7852   25.5073   -6.3375 C   0  0  0  0  0  0  0  0  0  0  0  0
  -91.9283   27.5918   -1.0543 C   0  0  0  0  0  0  0  0  0  0  0  0
  -91.5952   26.9322    0.2019 C   0  0  0  0  0  0  0  0  0  0  0  0
  -90.7256   27.5143    1.2273 C   0  0  0  0  0  0  0  0  0  0  0  0
  -91.1181   28.9037    1.6886 C   0  0  0  0  0  0  0  0  0  0  0  0
  -91.5284   28.8218    3.0746 N   0  0  0  0  0  0  0  0  0  0  0  0
  -92.0302   29.6593    3.3999 H   0  0  0  0  0  0  0  0  0  0  0  0
  -91.9313   27.9128    3.3308 H   0  0  0  0  0  0  0  0  0  0  0  0
  -87.1964   28.2325   -1.7681 C   0  0  0  0  0  0  0  0  0  0  0  0
  -86.7763   29.2954   -0.7603 C   0  0  0  0  0  0  0  0  0  0  0  0
  -87.0891   27.0612    0.4746 C   0  0  0  0  0  0  0  0  0  0  0  0
  -87.5567   27.0274   -0.9483 C   0  0  0  0  0  0  0  0  0  0  0  0
 49 50  1  0  0  0
 50 47  1  0  0  0
 47 48  1  0  0  0
 47  1  1  0  0  0
  1  2  1  0  0  0
  2  3  1  0  0  0
  3  4  2  0  0  0
  3  6  1  0  0  0
  6 19  1  0  0  0
 19 20  1  0  0  0
 20 21  1  0  0  0
 21 22  1  0  0  0
 21 23  2  0  0  0
  6  7  1  0  0  0
  7  8  1  0  0  0
  8  9  2  0  0  0
  8 11  1  0  0  0
 11 12  1  0  0  0
 12 13  1  0  0  0
 13 14  2  0  0  0
 14 15  1  0  0  0
 15 16  2  0  0  0
 16 17  1  0  0  0
 17 18  2  0  0  0
  1 25  1  0  0  0
 25 26  2  0  0  0
 25 27  1  0  0  0
 27 29  1  0  0  0
 29 40  1  0  0  0
 40 41  1  0  0  0
 41 42  1  0  0  0
 42 43  1  0  0  0
 43 44  1  0  0  0
 29 30  1  0  0  0
 30 31  2  0  0  0
 30 32  1  0  0  0
 32 33  1  0  0  0
 33 34  1  0  0  0
 34 35  2  0  0  0
 35 36  1  0  0  0
 36 37  2  0  0  0
 37 38  1  0  0  0
 38 39  2  0  0  0
 18 13  1  0  0  0
 39 34  1  0  0  0
  2  5  1  0  0  0
 22 24  1  0  0  0
  7 10  1  0  0  0
 27 28  1  0  0  0
 44 45  1  0  0  0
 44 46  1  0  0  0
M  END
> <minimizedAffinity>
-7.91000

> <CNNscore>
0.1332977116

> <CNNaffinity>
6.3604564667

> <CNN_VS>
0.8478342891

> <CNNaffinity_variance>
0.2970777452

$$$$
[H]OC(=O)C([H])([H])C([H])([H])[C@@]([H])(C(=O)N([H])[C@]([H])(C(=O)N([H])[C@]([H])(C(=O)OC([H])([H])c1c([H])c([H])c([H])c([H])c1[H])C([H])([H])C([H])([H])C([H])([H])C([H])([H])N([H])[H])[C@@]([H])(C([H])([H])[H])C([H])([H])C([H])([H])[H])N([H])C(=O)OC([H])([H])c1c([H])c([H])c([H])c([H])c1[H]


 50 51  0  0  0  0  0  0  0  0999 V2000
  -89.6113   31.2785   -0.9881 C   0  0  0  0  0  0  0  0  0  0  0  0
  -89.1299   29.9262   -0.5313 N   0  0  0  0  0  0  0  0  0  0  0  0
  -89.8312   29.1282    0.3536 C   0  0  0  0  0  0  0  0  0  0  0  0
  -90.9226   29.4632    0.8304 O   0  0  0  0  0  0  0  0  0  0  0  0
  -88.2180   29.6156   -0.9215 H   0  0  0  0  0  0  0  0  0  0  0  0
  -89.2557   27.7977    0.7642 C   0  0  0  0  0  0  0  0  0  0  0  0
  -88.2468   27.9239    1.7788 N   0  0  0  0  0  0  0  0  0  0  0  0
  -86.8868   28.0550    1.4539 C   0  0  0  0  0  0  0  0  0  0  0  0
  -86.5425   28.0739    0.2195 O   0  0  0  0  0  0  0  0  0  0  0  0
  -88.5593   27.9142    2.7839 H   0  0  0  0  0  0  0  0  0  0  0  0
  -85.8889   28.1681    2.3836 O   0  0  0  0  0  0  0  0  0  0  0  0
  -85.4958   29.3239    3.0500 C   0  0  0  0  0  0  0  0  0  0  0  0
  -84.5245   30.1045    2.2536 C   0  0  0  0  0  0  0  0  0  0  0  0
  -84.7280   31.3883    1.8061 C   0  0  0  0  0  0  0  0  0  0  0  0
  -83.8174   32.1052    1.0793 C   0  0  0  0  0  0  0  0  0  0  0  0
  -82.6115   31.5386    0.7571 C   0  0  0  0  0  0  0  0  0  0  0  0
  -82.3692   30.2405    1.1919 C   0  0  0  0  0  0  0  0  0  0  0  0
  -83.2974   29.5309    1.9238 C   0  0  0  0  0  0  0  0  0  0  0  0
  -90.3667   26.8965    1.2097 C   0  0  0  0  0  0  0  0  0  0  0  0
  -90.6974   25.8116    0.2144 C   0  0  0  0  0  0  0  0  0  0  0  0
  -89.9004   24.6119    0.5246 C   0  0  0  0  0  0  0  0  0  0  0  0
  -88.6509   24.3572   -0.0245 O   0  0  0  0  0  0  0  0  0  0  0  0
  -90.3527   23.7596    1.3263 O   0  0  0  0  0  0  0  0  0  0  0  0
  -88.3370   23.4758   -0.3501 H   0  0  0  0  0  0  0  0  0  0  0  0
  -90.2147   31.1446   -2.2956 C   0  0  0  0  0  0  0  0  0  0  0  0
  -89.6759   30.3044   -3.1085 O   0  0  0  0  0  0  0  0  0  0  0  0
  -91.3185   31.7832   -2.8399 N   0  0  0  0  0  0  0  0  0  0  0  0
  -91.8507   32.4931   -2.3164 H   0  0  0  0  0  0  0  0  0  0  0  0
  -91.8120   31.4679   -4.2439 C   0  0  0  0  0  0  0  0  0  0  0  0
  -91.5729   32.7080   -4.9689 C   0  0  0  0  0  0  0  0  0  0  0  0
  -92.3176   32.9881   -5.9924 O   0  0  0  0  0  0  0  0  0  0  0  0
  -90.6252   33.6288   -4.6727 O   0  0  0  0  0  0  0  0  0  0  0  0
  -90.7509   34.9929   -4.6183 C   0  0  0  0  0  0  0  0  0  0  0  0
  -89.4174   35.6475   -4.5880 C   0  0  0  0  0  0  0  0  0  0  0  0
  -88.4457   35.3881   -5.5001 C   0  0  0  0  0  0  0  0  0  0  0  0
  -87.2050   36.0302   -5.4386 C   0  0  0  0  0  0  0  0  0  0  0  0
  -86.9390   36.9435   -4.4464 C   0  0  0  0  0  0  0  0  0  0  0  0
  -87.9114   37.2244   -3.5057 C   0  0  0  0  0  0  0  0  0  0  0  0
  -89.1271   36.5851   -3.5799 C   0  0  0  0  0  0  0  0  0  0  0  0
  -93.1471   30.9236   -4.0194 C   0  0  0  0  0  0  0  0  0  0  0  0
  -93.5399   29.5364   -4.2327 C   0  0  0  0  0  0  0  0  0  0  0  0
  -92.6081   28.4064   -4.1966 C   0  0  0  0  0  0  0  0  0  0  0  0
  -92.7396   27.4289   -5.3476 C   0  0  0  0  0  0  0  0  0  0  0  0
  -92.4317   28.1312   -6.5757 N   0  0  0  0  0  0  0  0  0  0  0  0
  -92.7207   27.6189   -7.4200 H   0  0  0  0  0  0  0  0  0  0  0  0
  -92.6553   29.1328   -6.5433 H   0  0  0  0  0  0  0  0  0  0  0  0
  -88.4524   32.2012   -0.8133 C   0  0  0  0  0  0  0  0  0  0  0  0
  -87.1315   31.4417   -0.8322 C   0  0  0  0  0  0  0  0  0  0  0  0
  -86.8860   33.6918   -2.1315 C   0  0  0  0  0  0  0  0  0  0  0  0
  -88.2987   33.2919   -1.8335 C   0  0  0  0  0  0  0  0  0  0  0  0
 49 50  1  0  0  0
 50 47  1  0  0  0
 47 48  1  0  0  0
 47  1  1  0  0  0
  1  2  1  0  0  0
  2  3  1  0  0  0
  3  4  2  0  0  0
  3  6  1  0  0  0
  6 19  1  0  0  0
 19 20  1  0  0  0
 20 21  1  0  0  0
 21 22  1  0  0  0
 21 23  2  0  0  0
  6  7  1  0  0  0
  7  8  1  0  0  0
  8  9  2  0  0  0
  8 11  1  0  0  0
 11 12  1  0  0  0
 12 13  1  0  0  0
 13 14  2  0  0  0
 14 15  1  0  0  0
 15 16  2  0  0  0
 16 17  1  0  0  0
 17 18  2  0  0  0
  1 25  1  0  0  0
 25 26  2  0  0  0
 25 27  1  0  0  0
 27 29  1  0  0  0
 29 40  1  0  0  0
 40 41  1  0  0  0
 41 42  1  0  0  0
 42 43  1  0  0  0
 43 44  1  0  0  0
 29 30  1  0  0  0
 30 31  2  0  0  0
 30 32  1  0  0  0
 32 33  1  0  0  0
 33 34  1  0  0  0
 34 35  2  0  0  0
 35 36  1  0  0  0
 36 37  2  0  0  0
 37 38  1  0  0  0
 38 39  2  0  0  0
 18 13  1  0  0  0
 39 34  1  0  0  0
  2  5  1  0  0  0
 22 24  1  0  0  0
  7 10  1  0  0  0
 27 28  1  0  0  0
 44 45  1  0  0  0
 44 46  1  0  0  0
M  END
> <minimizedAffinity>
-7.59493

> <CNNscore>
0.1282064170

> <CNNaffinity>
6.4303712845

> <CNN_VS>
0.8244148493

> <CNNaffinity_variance>
0.3811079860

$$$$
[H]OC(=O)C([H])([H])C([H])([H])[C@@]([H])(C(=O)N([H])[C@]([H])(C(=O)N([H])[C@]([H])(C(=O)OC([H])([H])c1c([H])c([H])c([H])c([H])c1[H])C([H])([H])C([H])([H])C([H])([H])C([H])([H])N([H])[H])[C@@]([H])(C([H])([H])[H])C([H])([H])C([H])([H])[H])N([H])C(=O)OC([H])([H])c1c([H])c([H])c([H])c([H])c1[H]


 50 51  0  0  0  0  0  0  0  0999 V2000
  -88.5783   27.7591   -0.7040 C   0  0  0  0  0  0  0  0  0  0  0  0
  -88.8223   29.1502   -1.2279 N   0  0  0  0  0  0  0  0  0  0  0  0
  -88.5616   29.5285   -2.5320 C   0  0  0  0  0  0  0  0  0  0  0  0
  -88.1163   28.7417   -3.3767 O   0  0  0  0  0  0  0  0  0  0  0  0
  -89.2031   29.8313   -0.5414 H   0  0  0  0  0  0  0  0  0  0  0  0
  -88.8225   30.9508   -2.9549 C   0  0  0  0  0  0  0  0  0  0  0  0
  -87.6464   31.7721   -2.8791 N   0  0  0  0  0  0  0  0  0  0  0  0
  -87.2120   32.3273   -1.6644 C   0  0  0  0  0  0  0  0  0  0  0  0
  -87.8778   32.0832   -0.5969 O   0  0  0  0  0  0  0  0  0  0  0  0
  -87.1142   31.9486   -3.7699 H   0  0  0  0  0  0  0  0  0  0  0  0
  -86.1052   33.1231   -1.5433 O   0  0  0  0  0  0  0  0  0  0  0  0
  -85.5433   33.5977   -0.3628 C   0  0  0  0  0  0  0  0  0  0  0  0
  -84.6280   32.6040    0.2391 C   0  0  0  0  0  0  0  0  0  0  0  0
  -84.8576   31.9400    1.4207 C   0  0  0  0  0  0  0  0  0  0  0  0
  -84.0088   31.0141    1.9625 C   0  0  0  0  0  0  0  0  0  0  0  0
  -82.8429   30.7023    1.3126 C   0  0  0  0  0  0  0  0  0  0  0  0
  -82.5754   31.3542    0.1140 C   0  0  0  0  0  0  0  0  0  0  0  0
  -83.4412   32.2851   -0.4192 C   0  0  0  0  0  0  0  0  0  0  0  0
  -89.4023   30.9558   -4.3364 C   0  0  0  0  0  0  0  0  0  0  0  0
  -90.6495   31.7958   -4.4626 C   0  0  0  0  0  0  0  0  0  0  0  0
  -90.2765   33.1518   -4.9018 C   0  0  0  0  0  0  0  0  0  0  0  0
  -88.9771   33.5268   -5.2160 O   0  0  0  0  0  0  0  0  0  0  0  0
  -91.1628   34.0333   -5.0066 O   0  0  0  0  0  0  0  0  0  0  0  0
  -88.5495   34.3825   -4.9583 H   0  0  0  0  0  0  0  0  0  0  0  0
  -89.8164   27.0135   -0.7581 C   0  0  0  0  0  0  0  0  0  0  0  0
  -90.9110   27.6839   -0.6602 O   0  0  0  0  0  0  0  0  0  0  0  0
  -90.0341   25.6528   -0.9108 N   0  0  0  0  0  0  0  0  0  0  0  0
  -89.2564   24.9819   -0.9905 H   0  0  0  0  0  0  0  0  0  0  0  0
  -91.4381   25.0706   -0.9749 C   0  0  0  0  0  0  0  0  0  0  0  0
  -91.4552   24.1168    0.1253 C   0  0  0  0  0  0  0  0  0  0  0  0
  -91.2813   22.8586   -0.1343 O   0  0  0  0  0  0  0  0  0  0  0  0
  -91.6365   24.4187    1.4330 O   0  0  0  0  0  0  0  0  0  0  0  0
  -90.7601   24.2543    2.4743 C   0  0  0  0  0  0  0  0  0  0  0  0
  -90.5489   25.5353    3.1967 C   0  0  0  0  0  0  0  0  0  0  0  0
  -90.7096   26.7496    2.6110 C   0  0  0  0  0  0  0  0  0  0  0  0
  -90.5055   27.9324    3.3285 C   0  0  0  0  0  0  0  0  0  0  0  0
  -90.1341   27.8922    4.6513 C   0  0  0  0  0  0  0  0  0  0  0  0
  -89.9633   26.6685    5.2702 C   0  0  0  0  0  0  0  0  0  0  0  0
  -90.1685   25.5139    4.5512 C   0  0  0  0  0  0  0  0  0  0  0  0
  -91.5770   24.6742   -2.3722 C   0  0  0  0  0  0  0  0  0  0  0  0
  -92.7203   23.9714   -2.9406 C   0  0  0  0  0  0  0  0  0  0  0  0
  -92.6667   22.5996   -3.4524 C   0  0  0  0  0  0  0  0  0  0  0  0
  -93.6970   21.6550   -2.8663 C   0  0  0  0  0  0  0  0  0  0  0  0
  -93.2060   21.1861   -1.5876 N   0  0  0  0  0  0  0  0  0  0  0  0
  -93.7199   20.3695   -1.2297 H   0  0  0  0  0  0  0  0  0  0  0  0
  -92.1815   21.1496   -1.5292 H   0  0  0  0  0  0  0  0  0  0  0  0
  -87.8925   27.9353    0.6088 C   0  0  0  0  0  0  0  0  0  0  0  0
  -87.2024   26.6505    1.0504 C   0  0  0  0  0  0  0  0  0  0  0  0
  -85.7293   28.8672   -0.3213 C   0  0  0  0  0  0  0  0  0  0  0  0
  -86.8355   28.9993    0.6802 C   0  0  0  0  0  0  0  0  0  0  0  0
 49 50  1  0  0  0
 50 47  1  0  0  0
 47 48  1  0  0  0
 47  1  1  0  0  0
  1  2  1  0  0  0
  2  3  1  0  0  0
  3  4  2  0  0  0
  3  6  1  0  0  0
  6 19  1  0  0  0
 19 20  1  0  0  0
 20 21  1  0  0  0
 21 22  1  0  0  0
 21 23  2  0  0  0
  6  7  1  0  0  0
  7  8  1  0  0  0
  8  9  2  0  0  0
  8 11  1  0  0  0
 11 12  1  0  0  0
 12 13  1  0  0  0
 13 14  2  0  0  0
 14 15  1  0  0  0
 15 16  2  0  0  0
 16 17  1  0  0  0
 17 18  2  0  0  0
  1 25  1  0  0  0
 25 26  2  0  0  0
 25 27  1  0  0  0
 27 29  1  0  0  0
 29 40  1  0  0  0
 40 41  1  0  0  0
 41 42  1  0  0  0
 42 43  1  0  0  0
 43 44  1  0  0  0
 29 30  1  0  0  0
 30 31  2  0  0  0
 30 32  1  0  0  0
 32 33  1  0  0  0
 33 34  1  0  0  0
 34 35  2  0  0  0
 35 36  1  0  0  0
 36 37  2  0  0  0
 37 38  1  0  0  0
 38 39  2  0  0  0
 18 13  1  0  0  0
 39 34  1  0  0  0
  2  5  1  0  0  0
 22 24  1  0  0  0
  7 10  1  0  0  0
 27 28  1  0  0  0
 44 45  1  0  0  0
 44 46  1  0  0  0
M  END
> <minimizedAffinity>
-7.35844

> <CNNscore>
0.1267500669

> <CNNaffinity>
6.3444466591

> <CNN_VS>
0.8041590452

> <CNNaffinity_variance>
0.6980605125

$$$$
[H]OC(=O)C([H])([H])C([H])([H])[C@@]([H])(C(=O)N([H])[C@]([H])(C(=O)N([H])[C@]([H])(C(=O)OC([H])([H])c1c([H])c([H])c([H])c([H])c1[H])C([H])([H])C([H])([H])C([H])([H])C([H])([H])N([H])[H])[C@@]([H])(C([H])([H])[H])C([H])([H])C([H])([H])[H])N([H])C(=O)OC([H])([H])c1c([H])c([H])c([H])c([H])c1[H]


 50 51  0  0  0  0  0  0  0  0999 V2000
  -90.7393   25.5987   -1.6810 C   0  0  0  0  0  0  0  0  0  0  0  0
  -90.5501   26.0628   -0.2604 N   0  0  0  0  0  0  0  0  0  0  0  0
  -89.5249   25.6193    0.5546 C   0  0  0  0  0  0  0  0  0  0  0  0
  -88.6714   24.8105    0.1697 O   0  0  0  0  0  0  0  0  0  0  0  0
  -91.2492   26.7484    0.0879 H   0  0  0  0  0  0  0  0  0  0  0  0
  -89.4319   26.1300    1.9689 C   0  0  0  0  0  0  0  0  0  0  0  0
  -88.2610   26.9325    2.1886 N   0  0  0  0  0  0  0  0  0  0  0  0
  -87.9373   28.0099    1.3478 C   0  0  0  0  0  0  0  0  0  0  0  0
  -88.7150   28.2881    0.3678 O   0  0  0  0  0  0  0  0  0  0  0  0
  -87.6453   26.6868    3.0062 H   0  0  0  0  0  0  0  0  0  0  0  0
  -86.8292   28.7965    1.5100 O   0  0  0  0  0  0  0  0  0  0  0  0
  -85.5460   28.5383    1.0400 C   0  0  0  0  0  0  0  0  0  0  0  0
  -84.7077   29.7566    1.0564 C   0  0  0  0  0  0  0  0  0  0  0  0
  -83.8232   30.1142    0.0666 C   0  0  0  0  0  0  0  0  0  0  0  0
  -83.0609   31.2499    0.0870 C   0  0  0  0  0  0  0  0  0  0  0  0
  -83.1588   32.1120    1.1482 C   0  0  0  0  0  0  0  0  0  0  0  0
  -84.0430   31.7838    2.1697 C   0  0  0  0  0  0  0  0  0  0  0  0
  -84.8046   30.6352    2.1344 C   0  0  0  0  0  0  0  0  0  0  0  0
  -90.6814   26.8865    2.3029 C   0  0  0  0  0  0  0  0  0  0  0  0
  -90.5742   27.6950    3.5724 C   0  0  0  0  0  0  0  0  0  0  0  0
  -90.6765   26.7910    4.7313 C   0  0  0  0  0  0  0  0  0  0  0  0
  -90.0049   26.9985    5.9285 O   0  0  0  0  0  0  0  0  0  0  0  0
  -91.4044   25.7719    4.6579 O   0  0  0  0  0  0  0  0  0  0  0  0
  -89.5535   26.2959    6.4615 H   0  0  0  0  0  0  0  0  0  0  0  0
  -90.8985   26.7549   -2.5350 C   0  0  0  0  0  0  0  0  0  0  0  0
  -90.3731   26.6956   -3.7087 O   0  0  0  0  0  0  0  0  0  0  0  0
  -91.5503   27.9559   -2.3005 N   0  0  0  0  0  0  0  0  0  0  0  0
  -92.0110   28.1597   -1.4019 H   0  0  0  0  0  0  0  0  0  0  0  0
  -91.6276   29.0434   -3.3615 C   0  0  0  0  0  0  0  0  0  0  0  0
  -90.6539   30.0254   -2.9054 C   0  0  0  0  0  0  0  0  0  0  0  0
  -90.9703   30.8117   -1.9244 O   0  0  0  0  0  0  0  0  0  0  0  0
  -89.4119   30.2053   -3.4145 O   0  0  0  0  0  0  0  0  0  0  0  0
  -88.2032   29.9393   -2.8247 C   0  0  0  0  0  0  0  0  0  0  0  0
  -87.5828   31.1842   -2.3022 C   0  0  0  0  0  0  0  0  0  0  0  0
  -87.1986   31.3320   -1.0084 C   0  0  0  0  0  0  0  0  0  0  0  0
  -86.6134   32.5195   -0.5580 C   0  0  0  0  0  0  0  0  0  0  0  0
  -86.4135   33.5711   -1.4203 C   0  0  0  0  0  0  0  0  0  0  0  0
  -86.7967   33.4458   -2.7420 C   0  0  0  0  0  0  0  0  0  0  0  0
  -87.3704   32.2711   -3.1701 C   0  0  0  0  0  0  0  0  0  0  0  0
  -93.0562   29.3250   -3.4545 C   0  0  0  0  0  0  0  0  0  0  0  0
  -93.9960   28.6407   -4.3335 C   0  0  0  0  0  0  0  0  0  0  0  0
  -93.8281   28.5297   -5.7847 C   0  0  0  0  0  0  0  0  0  0  0  0
  -93.1995   27.2354   -6.2611 C   0  0  0  0  0  0  0  0  0  0  0  0
  -92.0595   27.5642   -7.0909 N   0  0  0  0  0  0  0  0  0  0  0  0
  -91.7167   26.7673   -7.6445 H   0  0  0  0  0  0  0  0  0  0  0  0
  -92.1532   28.4615   -7.5810 H   0  0  0  0  0  0  0  0  0  0  0  0
  -91.8241   24.5761   -1.6318 C   0  0  0  0  0  0  0  0  0  0  0  0
  -92.9657   25.0223   -0.7265 C   0  0  0  0  0  0  0  0  0  0  0  0
  -92.6127   22.7457   -3.1941 C   0  0  0  0  0  0  0  0  0  0  0  0
  -92.4703   24.2148   -2.9380 C   0  0  0  0  0  0  0  0  0  0  0  0
 49 50  1  0  0  0
 50 47  1  0  0  0
 47 48  1  0  0  0
 47  1  1  0  0  0
  1  2  1  0  0  0
  2  3  1  0  0  0
  3  4  2  0  0  0
  3  6  1  0  0  0
  6 19  1  0  0  0
 19 20  1  0  0  0
 20 21  1  0  0  0
 21 22  1  0  0  0
 21 23  2  0  0  0
  6  7  1  0  0  0
  7  8  1  0  0  0
  8  9  2  0  0  0
  8 11  1  0  0  0
 11 12  1  0  0  0
 12 13  1  0  0  0
 13 14  2  0  0  0
 14 15  1  0  0  0
 15 16  2  0  0  0
 16 17  1  0  0  0
 17 18  2  0  0  0
  1 25  1  0  0  0
 25 26  2  0  0  0
 25 27  1  0  0  0
 27 29  1  0  0  0
 29 40  1  0  0  0
 40 41  1  0  0  0
 41 42  1  0  0  0
 42 43  1  0  0  0
 43 44  1  0  0  0
 29 30  1  0  0  0
 30 31  2  0  0  0
 30 32  1  0  0  0
 32 33  1  0  0  0
 33 34  1  0  0  0
 34 35  2  0  0  0
 35 36  1  0  0  0
 36 37  2  0  0  0
 37 38  1  0  0  0
 38 39  2  0  0  0
 18 13  1  0  0  0
 39 34  1  0  0  0
  2  5  1  0  0  0
 22 24  1  0  0  0
  7 10  1  0  0  0
 27 28  1  0  0  0
 44 45  1  0  0  0
 44 46  1  0  0  0
M  END
> <minimizedAffinity>
-7.70608

> <CNNscore>
0.1204065233

> <CNNaffinity>
6.2848677635

> <CNN_VS>
0.7567390800

> <CNNaffinity_variance>
0.7883785963

$$$$
[H]OC(=O)C([H])([H])C([H])([H])[C@@]([H])(C(=O)N([H])[C@]([H])(C(=O)N([H])[C@]([H])(C(=O)OC([H])([H])c1c([H])c([H])c([H])c([H])c1[H])C([H])([H])C([H])([H])C([H])([H])C([H])([H])N([H])[H])[C@@]([H])(C([H])([H])[H])C([H])([H])C([H])([H])[H])N([H])C(=O)OC([H])([H])c1c([H])c([H])c([H])c([H])c1[H]


 50 51  0  0  0  0  0  0  0  0999 V2000
  -90.6613   25.4980   -1.3814 C   0  0  0  0  0  0  0  0  0  0  0  0
  -90.3208   25.8408    0.0454 N   0  0  0  0  0  0  0  0  0  0  0  0
  -89.0401   25.7649    0.5610 C   0  0  0  0  0  0  0  0  0  0  0  0
  -88.0676   25.4189   -0.1211 O   0  0  0  0  0  0  0  0  0  0  0  0
  -91.1180   26.1416    0.6405 H   0  0  0  0  0  0  0  0  0  0  0  0
  -88.8046   26.1117    2.0081 C   0  0  0  0  0  0  0  0  0  0  0  0
  -88.2230   27.4146    2.1744 N   0  0  0  0  0  0  0  0  0  0  0  0
  -86.8336   27.5949    2.2703 C   0  0  0  0  0  0  0  0  0  0  0  0
  -86.0679   26.5698    2.1956 O   0  0  0  0  0  0  0  0  0  0  0  0
  -88.8753   28.2392    2.2237 H   0  0  0  0  0  0  0  0  0  0  0  0
  -86.2334   28.8132    2.4390 O   0  0  0  0  0  0  0  0  0  0  0  0
  -84.9055   29.0499    2.7782 C   0  0  0  0  0  0  0  0  0  0  0  0
  -84.2973   30.0751    1.9028 C   0  0  0  0  0  0  0  0  0  0  0  0
  -84.9813   31.1148    1.3190 C   0  0  0  0  0  0  0  0  0  0  0  0
  -84.4060   32.0643    0.5197 C   0  0  0  0  0  0  0  0  0  0  0  0
  -83.0609   32.0073    0.2616 C   0  0  0  0  0  0  0  0  0  0  0  0
  -82.3351   30.9691    0.8344 C   0  0  0  0  0  0  0  0  0  0  0  0
  -82.9297   30.0197    1.6380 C   0  0  0  0  0  0  0  0  0  0  0  0
  -90.0949   25.9911    2.7601 C   0  0  0  0  0  0  0  0  0  0  0  0
  -89.9943   25.1272    3.9932 C   0  0  0  0  0  0  0  0  0  0  0  0
  -90.4974   23.7782    3.6807 C   0  0  0  0  0  0  0  0  0  0  0  0
  -89.6734   22.7030    3.3761 O   0  0  0  0  0  0  0  0  0  0  0  0
  -91.7333   23.5632    3.6842 O   0  0  0  0  0  0  0  0  0  0  0  0
  -89.8413   22.0365    2.6626 H   0  0  0  0  0  0  0  0  0  0  0  0
  -90.6334   26.7074   -2.1739 C   0  0  0  0  0  0  0  0  0  0  0  0
  -90.5686   26.5711   -3.4523 O   0  0  0  0  0  0  0  0  0  0  0  0
  -90.6742   28.0358   -1.7788 N   0  0  0  0  0  0  0  0  0  0  0  0
  -90.7150   28.3082   -0.7861 H   0  0  0  0  0  0  0  0  0  0  0  0
  -90.6661   29.1711   -2.7913 C   0  0  0  0  0  0  0  0  0  0  0  0
  -89.3374   29.7469   -2.6377 C   0  0  0  0  0  0  0  0  0  0  0  0
  -88.5711   29.8392   -3.6793 O   0  0  0  0  0  0  0  0  0  0  0  0
  -88.8046   30.2132   -1.4834 O   0  0  0  0  0  0  0  0  0  0  0  0
  -89.0995   31.3748   -0.8176 C   0  0  0  0  0  0  0  0  0  0  0  0
  -88.5566   32.5533   -1.5414 C   0  0  0  0  0  0  0  0  0  0  0  0
  -89.3328   33.3939   -2.2724 C   0  0  0  0  0  0  0  0  0  0  0  0
  -88.7824   34.4955   -2.9349 C   0  0  0  0  0  0  0  0  0  0  0  0
  -87.4342   34.7534   -2.8615 C   0  0  0  0  0  0  0  0  0  0  0  0
  -86.6227   33.9121   -2.1244 C   0  0  0  0  0  0  0  0  0  0  0  0
  -87.1791   32.8330   -1.4778 C   0  0  0  0  0  0  0  0  0  0  0  0
  -91.8900   29.9049   -2.4873 C   0  0  0  0  0  0  0  0  0  0  0  0
  -92.2952   31.1624   -3.1026 C   0  0  0  0  0  0  0  0  0  0  0  0
  -92.0323   31.5122   -4.5008 C   0  0  0  0  0  0  0  0  0  0  0  0
  -92.8516   30.7451   -5.5195 C   0  0  0  0  0  0  0  0  0  0  0  0
  -93.1740   31.6419   -6.6095 N   0  0  0  0  0  0  0  0  0  0  0  0
  -93.9167   31.2829   -7.2248 H   0  0  0  0  0  0  0  0  0  0  0  0
  -93.2449   32.6258   -6.3247 H   0  0  0  0  0  0  0  0  0  0  0  0
  -91.9198   24.6999   -1.3168 C   0  0  0  0  0  0  0  0  0  0  0  0
  -91.8715   23.5108   -2.2684 C   0  0  0  0  0  0  0  0  0  0  0  0
  -91.9796   22.6680    0.1935 C   0  0  0  0  0  0  0  0  0  0  0  0
  -92.2856   24.1243    0.0208 C   0  0  0  0  0  0  0  0  0  0  0  0
 49 50  1  0  0  0
 50 47  1  0  0  0
 47 48  1  0  0  0
 47  1  1  0  0  0
  1  2  1  0  0  0
  2  3  1  0  0  0
  3  4  2  0  0  0
  3  6  1  0  0  0
  6 19  1  0  0  0
 19 20  1  0  0  0
 20 21  1  0  0  0
 21 22  1  0  0  0
 21 23  2  0  0  0
  6  7  1  0  0  0
  7  8  1  0  0  0
  8  9  2  0  0  0
  8 11  1  0  0  0
 11 12  1  0  0  0
 12 13  1  0  0  0
 13 14  2  0  0  0
 14 15  1  0  0  0
 15 16  2  0  0  0
 16 17  1  0  0  0
 17 18  2  0  0  0
  1 25  1  0  0  0
 25 26  2  0  0  0
 25 27  1  0  0  0
 27 29  1  0  0  0
 29 40  1  0  0  0
 40 41  1  0  0  0
 41 42  1  0  0  0
 42 43  1  0  0  0
 43 44  1  0  0  0
 29 30  1  0  0  0
 30 31  2  0  0  0
 30 32  1  0  0  0
 32 33  1  0  0  0
 33 34  1  0  0  0
 34 35  2  0  0  0
 35 36  1  0  0  0
 36 37  2  0  0  0
 37 38  1  0  0  0
 38 39  2  0  0  0
 18 13  1  0  0  0
 39 34  1  0  0  0
  2  5  1  0  0  0
 22 24  1  0  0  0
  7 10  1  0  0  0
 27 28  1  0  0  0
 44 45  1  0  0  0
 44 46  1  0  0  0
M  END
> <minimizedAffinity>
-8.01344

> <CNNscore>
0.1074519753

> <CNNaffinity>
6.2731361389

> <CNN_VS>
0.6740608811

> <CNNaffinity_variance>
0.7743612528

$$$$
[H]OC(=O)C([H])([H])C([H])([H])[C@@]([H])(C(=O)N([H])[C@]([H])(C(=O)N([H])[C@]([H])(C(=O)OC([H])([H])c1c([H])c([H])c([H])c([H])c1[H])C([H])([H])C([H])([H])C([H])([H])C([H])([H])N([H])[H])[C@@]([H])(C([H])([H])[H])C([H])([H])C([H])([H])[H])N([H])C(=O)OC([H])([H])c1c([H])c([H])c([H])c([H])c1[H]


 50 51  0  0  0  0  0  0  0  0999 V2000
  -89.7882   24.0574    0.0845 C   0  0  0  0  0  0  0  0  0  0  0  0
  -89.1873   25.0547    1.0404 N   0  0  0  0  0  0  0  0  0  0  0  0
  -89.8770   26.1471    1.5329 C   0  0  0  0  0  0  0  0  0  0  0  0
  -91.0541   26.3817    1.2323 O   0  0  0  0  0  0  0  0  0  0  0  0
  -88.2008   24.8786    1.3160 H   0  0  0  0  0  0  0  0  0  0  0  0
  -89.1809   27.0986    2.4709 C   0  0  0  0  0  0  0  0  0  0  0  0
  -88.1747   27.8838    1.8119 N   0  0  0  0  0  0  0  0  0  0  0  0
  -86.8309   27.4774    1.7727 C   0  0  0  0  0  0  0  0  0  0  0  0
  -86.5002   26.3718    2.3302 O   0  0  0  0  0  0  0  0  0  0  0  0
  -88.4765   28.7827    1.3549 H   0  0  0  0  0  0  0  0  0  0  0  0
  -85.8355   28.1949    1.1666 O   0  0  0  0  0  0  0  0  0  0  0  0
  -84.6980   28.7197    1.7709 C   0  0  0  0  0  0  0  0  0  0  0  0
  -84.3033   30.0062    1.1573 C   0  0  0  0  0  0  0  0  0  0  0  0
  -83.0166   30.4866    1.1002 C   0  0  0  0  0  0  0  0  0  0  0  0
  -82.6614   31.6733    0.5198 C   0  0  0  0  0  0  0  0  0  0  0  0
  -83.6253   32.4623   -0.0525 C   0  0  0  0  0  0  0  0  0  0  0  0
  -84.9394   32.0099   -0.0139 C   0  0  0  0  0  0  0  0  0  0  0  0
  -85.2813   30.8111    0.5749 C   0  0  0  0  0  0  0  0  0  0  0  0
  -90.2022   27.9697    3.1368 C   0  0  0  0  0  0  0  0  0  0  0  0
  -90.0099   28.0899    4.6286 C   0  0  0  0  0  0  0  0  0  0  0  0
  -90.2919   26.7884    5.2587 C   0  0  0  0  0  0  0  0  0  0  0  0
  -89.4913   26.2215    6.2412 O   0  0  0  0  0  0  0  0  0  0  0  0
  -91.3050   26.1377    4.9066 O   0  0  0  0  0  0  0  0  0  0  0  0
  -89.2388   25.2649    6.2933 H   0  0  0  0  0  0  0  0  0  0  0  0
  -90.0468   24.7143   -1.1777 C   0  0  0  0  0  0  0  0  0  0  0  0
  -89.3139   24.3726   -2.1792 O   0  0  0  0  0  0  0  0  0  0  0  0
  -90.9879   25.6776   -1.5073 N   0  0  0  0  0  0  0  0  0  0  0  0
  -91.6412   26.0626   -0.8099 H   0  0  0  0  0  0  0  0  0  0  0  0
  -91.1141   26.2197   -2.9230 C   0  0  0  0  0  0  0  0  0  0  0  0
  -90.7600   27.6246   -2.7761 C   0  0  0  0  0  0  0  0  0  0  0  0
  -91.1091   28.4585   -3.7052 O   0  0  0  0  0  0  0  0  0  0  0  0
  -90.0852   28.1669   -1.7347 O   0  0  0  0  0  0  0  0  0  0  0  0
  -88.7500   28.4657   -1.6482 C   0  0  0  0  0  0  0  0  0  0  0  0
  -88.5319   29.9349   -1.6873 C   0  0  0  0  0  0  0  0  0  0  0  0
  -87.9295   30.5654   -2.7280 C   0  0  0  0  0  0  0  0  0  0  0  0
  -87.7478   31.9519   -2.7275 C   0  0  0  0  0  0  0  0  0  0  0  0
  -88.1768   32.7127   -1.6661 C   0  0  0  0  0  0  0  0  0  0  0  0
  -88.7922   32.0945   -0.5943 C   0  0  0  0  0  0  0  0  0  0  0  0
  -88.9643   30.7298   -0.6098 C   0  0  0  0  0  0  0  0  0  0  0  0
  -92.4394   25.7739   -3.3397 C   0  0  0  0  0  0  0  0  0  0  0  0
  -93.3798   25.0315   -2.5099 C   0  0  0  0  0  0  0  0  0  0  0  0
  -94.4971   24.2459   -3.0402 C   0  0  0  0  0  0  0  0  0  0  0  0
  -94.1759   22.7958   -3.3423 C   0  0  0  0  0  0  0  0  0  0  0  0
  -94.2851   22.5960   -4.7721 N   0  0  0  0  0  0  0  0  0  0  0  0
  -94.3169   21.6036   -5.0424 H   0  0  0  0  0  0  0  0  0  0  0  0
  -94.9640   23.2202   -5.2235 H   0  0  0  0  0  0  0  0  0  0  0  0
  -90.9208   23.4235    0.8197 C   0  0  0  0  0  0  0  0  0  0  0  0
  -91.7905   22.5905   -0.1138 C   0  0  0  0  0  0  0  0  0  0  0  0
  -90.8463   23.0406    3.3219 C   0  0  0  0  0  0  0  0  0  0  0  0
  -90.5604   22.5058    1.9521 C   0  0  0  0  0  0  0  0  0  0  0  0
 49 50  1  0  0  0
 50 47  1  0  0  0
 47 48  1  0  0  0
 47  1  1  0  0  0
  1  2  1  0  0  0
  2  3  1  0  0  0
  3  4  2  0  0  0
  3  6  1  0  0  0
  6 19  1  0  0  0
 19 20  1  0  0  0
 20 21  1  0  0  0
 21 22  1  0  0  0
 21 23  2  0  0  0
  6  7  1  0  0  0
  7  8  1  0  0  0
  8  9  2  0  0  0
  8 11  1  0  0  0
 11 12  1  0  0  0
 12 13  1  0  0  0
 13 14  2  0  0  0
 14 15  1  0  0  0
 15 16  2  0  0  0
 16 17  1  0  0  0
 17 18  2  0  0  0
  1 25  1  0  0  0
 25 26  2  0  0  0
 25 27  1  0  0  0
 27 29  1  0  0  0
 29 40  1  0  0  0
 40 41  1  0  0  0
 41 42  1  0  0  0
 42 43  1  0  0  0
 43 44  1  0  0  0
 29 30  1  0  0  0
 30 31  2  0  0  0
 30 32  1  0  0  0
 32 33  1  0  0  0
 33 34  1  0  0  0
 34 35  2  0  0  0
 35 36  1  0  0  0
 36 37  2  0  0  0
 37 38  1  0  0  0
 38 39  2  0  0  0
 18 13  1  0  0  0
 39 34  1  0  0  0
  2  5  1  0  0  0
 22 24  1  0  0  0
  7 10  1  0  0  0
 27 28  1  0  0  0
 44 45  1  0  0  0
 44 46  1  0  0  0
M  END
> <minimizedAffinity>
-7.81157

> <CNNscore>
0.1017917320

> <CNNaffinity>
6.4508333206

> <CNN_VS>
0.6566414833

> <CNNaffinity_variance>
0.5952373743

$$$$
[H]OC(=O)C([H])([H])C([H])([H])[C@@]([H])(C(=O)N([H])[C@]([H])(C(=O)N([H])[C@]([H])(C(=O)OC([H])([H])c1c([H])c([H])c([H])c([H])c1[H])C([H])([H])C([H])([H])C([H])([H])C([H])([H])N([H])[H])[C@@]([H])(C([H])([H])[H])C([H])([H])C([H])([H])[H])N([H])C(=O)OC([H])([H])c1c([H])c([H])c([H])c([H])c1[H]


 50 51  0  0  0  0  0  0  0  0999 V2000
  -91.2036   30.4748   -1.5118 C   0  0  0  0  0  0  0  0  0  0  0  0
  -89.9975   31.2410   -1.9888 N   0  0  0  0  0  0  0  0  0  0  0  0
  -89.3324   32.1724   -1.2130 C   0  0  0  0  0  0  0  0  0  0  0  0
  -89.6740   32.4389   -0.0540 O   0  0  0  0  0  0  0  0  0  0  0  0
  -89.6836   31.0323   -2.9573 H   0  0  0  0  0  0  0  0  0  0  0  0
  -88.1456   32.9008   -1.7882 C   0  0  0  0  0  0  0  0  0  0  0  0
  -86.9091   32.2075   -1.5565 N   0  0  0  0  0  0  0  0  0  0  0  0
  -85.8851   32.7675   -0.7754 C   0  0  0  0  0  0  0  0  0  0  0  0
  -86.0669   33.9215   -0.2482 O   0  0  0  0  0  0  0  0  0  0  0  0
  -86.7908   31.2577   -1.9944 H   0  0  0  0  0  0  0  0  0  0  0  0
  -84.6871   32.1512   -0.5343 O   0  0  0  0  0  0  0  0  0  0  0  0
  -83.9490   32.1928    0.6437 C   0  0  0  0  0  0  0  0  0  0  0  0
  -84.0519   30.9216    1.3926 C   0  0  0  0  0  0  0  0  0  0  0  0
  -85.1872   30.4724    2.0243 C   0  0  0  0  0  0  0  0  0  0  0  0
  -85.2741   29.2889    2.7048 C   0  0  0  0  0  0  0  0  0  0  0  0
  -84.1770   28.4709    2.7833 C   0  0  0  0  0  0  0  0  0  0  0  0
  -83.0093   28.8919    2.1569 C   0  0  0  0  0  0  0  0  0  0  0  0
  -82.9377   30.0877    1.4746 C   0  0  0  0  0  0  0  0  0  0  0  0
  -88.3728   33.1356   -3.2505 C   0  0  0  0  0  0  0  0  0  0  0  0
  -87.3743   32.4308   -4.1354 C   0  0  0  0  0  0  0  0  0  0  0  0
  -87.9580   31.1637   -4.6091 C   0  0  0  0  0  0  0  0  0  0  0  0
  -88.6647   31.0409   -5.7979 O   0  0  0  0  0  0  0  0  0  0  0  0
  -87.8222   30.1246   -3.9195 O   0  0  0  0  0  0  0  0  0  0  0  0
  -89.4969   30.5171   -5.9183 H   0  0  0  0  0  0  0  0  0  0  0  0
  -90.7659   29.2241   -0.9324 C   0  0  0  0  0  0  0  0  0  0  0  0
  -91.1773   28.9511    0.2564 O   0  0  0  0  0  0  0  0  0  0  0  0
  -89.9566   28.2297   -1.4601 N   0  0  0  0  0  0  0  0  0  0  0  0
  -89.5392   28.3075   -2.3987 H   0  0  0  0  0  0  0  0  0  0  0  0
  -89.6415   26.9601   -0.6834 C   0  0  0  0  0  0  0  0  0  0  0  0
  -88.2240   27.0973   -0.3792 C   0  0  0  0  0  0  0  0  0  0  0  0
  -87.3811   27.2035   -1.3584 O   0  0  0  0  0  0  0  0  0  0  0  0
  -87.6791   27.1296    0.8602 O   0  0  0  0  0  0  0  0  0  0  0  0
  -87.6310   26.1284    1.7955 C   0  0  0  0  0  0  0  0  0  0  0  0
  -88.6347   26.3553    2.8673 C   0  0  0  0  0  0  0  0  0  0  0  0
  -89.0386   25.3795    3.7204 C   0  0  0  0  0  0  0  0  0  0  0  0
  -89.9828   25.6362    4.7194 C   0  0  0  0  0  0  0  0  0  0  0  0
  -90.5276   26.8903    4.8605 C   0  0  0  0  0  0  0  0  0  0  0  0
  -90.1334   27.9006    4.0040 C   0  0  0  0  0  0  0  0  0  0  0  0
  -89.2032   27.6325    3.0268 C   0  0  0  0  0  0  0  0  0  0  0  0
  -90.1723   25.9012   -1.5353 C   0  0  0  0  0  0  0  0  0  0  0  0
  -90.6848   24.6193   -1.0683 C   0  0  0  0  0  0  0  0  0  0  0  0
  -90.1353   23.8844    0.0738 C   0  0  0  0  0  0  0  0  0  0  0  0
  -90.1499   22.3753   -0.0666 C   0  0  0  0  0  0  0  0  0  0  0  0
  -88.7796   21.9080   -0.0762 N   0  0  0  0  0  0  0  0  0  0  0  0
  -88.6839   20.9364   -0.4013 H   0  0  0  0  0  0  0  0  0  0  0  0
  -88.1152   22.5911   -0.4586 H   0  0  0  0  0  0  0  0  0  0  0  0
  -92.1497   30.4503   -2.6647 C   0  0  0  0  0  0  0  0  0  0  0  0
  -91.4150   30.2210   -3.9798 C   0  0  0  0  0  0  0  0  0  0  0  0
  -93.1869   28.4030   -3.7351 C   0  0  0  0  0  0  0  0  0  0  0  0
  -93.2320   29.4104   -2.6272 C   0  0  0  0  0  0  0  0  0  0  0  0
 49 50  1  0  0  0
 50 47  1  0  0  0
 47 48  1  0  0  0
 47  1  1  0  0  0
  1  2  1  0  0  0
  2  3  1  0  0  0
  3  4  2  0  0  0
  3  6  1  0  0  0
  6 19  1  0  0  0
 19 20  1  0  0  0
 20 21  1  0  0  0
 21 22  1  0  0  0
 21 23  2  0  0  0
  6  7  1  0  0  0
  7  8  1  0  0  0
  8  9  2  0  0  0
  8 11  1  0  0  0
 11 12  1  0  0  0
 12 13  1  0  0  0
 13 14  2  0  0  0
 14 15  1  0  0  0
 15 16  2  0  0  0
 16 17  1  0  0  0
 17 18  2  0  0  0
  1 25  1  0  0  0
 25 26  2  0  0  0
 25 27  1  0  0  0
 27 29  1  0  0  0
 29 40  1  0  0  0
 40 41  1  0  0  0
 41 42  1  0  0  0
 42 43  1  0  0  0
 43 44  1  0  0  0
 29 30  1  0  0  0
 30 31  2  0  0  0
 30 32  1  0  0  0
 32 33  1  0  0  0
 33 34  1  0  0  0
 34 35  2  0  0  0
 35 36  1  0  0  0
 36 37  2  0  0  0
 37 38  1  0  0  0
 38 39  2  0  0  0
 18 13  1  0  0  0
 39 34  1  0  0  0
  2  5  1  0  0  0
 22 24  1  0  0  0
  7 10  1  0  0  0
 27 28  1  0  0  0
 44 45  1  0  0  0
 44 46  1  0  0  0
M  END
> <minimizedAffinity>
-8.25966

> <CNNscore>
0.0979576409

> <CNNaffinity>
6.2579102516

> <CNN_VS>
0.6130101085

> <CNNaffinity_variance>
1.4693962336

$$$$
[H]OC(=O)[C@@]([H])(N([H])C(=O)[C@@]([H])(N([H])C(=O)[C@@]([H])(N([H])C(=O)[C@@]([H])(N([H])S(=O)(=O)c1c([H])c([H])c(OC([H])([H])[H])c([H])c1[H])C([H])([H])c1c([H])c([H])c([H])c([H])c1[H])C([H])([H])c1c([H])c([H])c([H])c([H])c1[H])C([H])([H])c1c([H])c([H])c([H])c([H])c1[H])C([H])([H])c1c([H])c([H])c([H])c([H])c1[H]


 61 65  0  0  0  0  0  0  0  0999 V2000
  -90.7493   29.4565   -2.5259 C   0  0  0  0  0  0  0  0  0  0  0  0
  -91.5693   27.2930   -3.5661 C   0  0  0  0  0  0  0  0  0  0  0  0
  -90.4488   26.6190   -3.5840 O   0  0  0  0  0  0  0  0  0  0  0  0
  -91.6994   28.5604   -3.0694 N   0  0  0  0  0  0  0  0  0  0  0  0
  -92.7102   28.9648   -3.1054 H   0  0  0  0  0  0  0  0  0  0  0  0
  -92.6884   26.4808   -4.1874 C   0  0  0  0  0  0  0  0  0  0  0  0
  -93.8716   26.7540   -3.3306 N   0  0  0  0  0  0  0  0  0  0  0  0
  -94.3981   27.5693   -3.5822 H   0  0  0  0  0  0  0  0  0  0  0  0
  -94.4517   25.5261   -2.3866 S   0  0  0  0  0  0  0  0  0  0  0  0
  -95.5205   25.9490   -1.4072 O   0  0  0  0  0  0  0  0  0  0  0  0
  -95.1102   24.4993   -3.3297 O   0  0  0  0  0  0  0  0  0  0  0  0
  -91.1577   23.4244   -0.0589 C   0  0  0  0  0  0  0  0  0  0  0  0
  -91.8598   24.4916    0.4650 C   0  0  0  0  0  0  0  0  0  0  0  0
  -92.8466   25.1128   -0.2590 C   0  0  0  0  0  0  0  0  0  0  0  0
  -93.1724   24.6772   -1.5584 C   0  0  0  0  0  0  0  0  0  0  0  0
  -92.4747   23.6300   -2.0534 C   0  0  0  0  0  0  0  0  0  0  0  0
  -91.4649   22.9905   -1.3207 C   0  0  0  0  0  0  0  0  0  0  0  0
  -89.4404   21.7303    0.0199 C   0  0  0  0  0  0  0  0  0  0  0  0
  -90.1477   22.7894    0.6758 O   0  0  0  0  0  0  0  0  0  0  0  0
  -93.1187   26.9323   -5.5191 C   0  0  0  0  0  0  0  0  0  0  0  0
  -94.2491   26.3465   -6.1961 C   0  0  0  0  0  0  0  0  0  0  0  0
  -95.3348   27.0887   -6.6167 C   0  0  0  0  0  0  0  0  0  0  0  0
  -96.3366   26.5265   -7.3440 C   0  0  0  0  0  0  0  0  0  0  0  0
  -96.3081   25.1837   -7.6945 C   0  0  0  0  0  0  0  0  0  0  0  0
  -95.2176   24.4274   -7.2737 C   0  0  0  0  0  0  0  0  0  0  0  0
  -94.2066   24.9836   -6.5404 C   0  0  0  0  0  0  0  0  0  0  0  0
  -90.0988   29.2033   -1.2542 C   0  0  0  0  0  0  0  0  0  0  0  0
  -90.3406   29.8222   -0.2186 O   0  0  0  0  0  0  0  0  0  0  0  0
  -89.0855   28.1581   -1.1014 N   0  0  0  0  0  0  0  0  0  0  0  0
  -88.7720   27.5607   -1.8659 H   0  0  0  0  0  0  0  0  0  0  0  0
  -88.5067   27.9681    0.2169 C   0  0  0  0  0  0  0  0  0  0  0  0
  -87.1008   28.3586    0.2243 C   0  0  0  0  0  0  0  0  0  0  0  0
  -86.5700   28.7137   -0.8843 O   0  0  0  0  0  0  0  0  0  0  0  0
  -86.2920   28.3782    1.3829 N   0  0  0  0  0  0  0  0  0  0  0  0
  -86.7286   28.0647    2.2736 H   0  0  0  0  0  0  0  0  0  0  0  0
  -84.8946   28.8099    1.4084 C   0  0  0  0  0  0  0  0  0  0  0  0
  -84.0492   27.9292    2.2083 C   0  0  0  0  0  0  0  0  0  0  0  0
  -82.7365   28.2199    2.5678 O   0  0  0  0  0  0  0  0  0  0  0  0
  -84.4885   26.8328    2.6178 O   0  0  0  0  0  0  0  0  0  0  0  0
  -81.9371   28.1435    1.9641 H   0  0  0  0  0  0  0  0  0  0  0  0
  -84.8951   30.2419    1.9261 C   0  0  0  0  0  0  0  0  0  0  0  0
  -84.5977   31.2841    0.9726 C   0  0  0  0  0  0  0  0  0  0  0  0
  -85.5980   32.0130    0.3771 C   0  0  0  0  0  0  0  0  0  0  0  0
  -85.2927   33.0394   -0.5254 C   0  0  0  0  0  0  0  0  0  0  0  0
  -83.9666   33.3165   -0.8168 C   0  0  0  0  0  0  0  0  0  0  0  0
  -82.9642   32.5961   -0.2283 C   0  0  0  0  0  0  0  0  0  0  0  0
  -83.2909   31.5930    0.6557 C   0  0  0  0  0  0  0  0  0  0  0  0
  -88.8936   26.6712    0.8182 C   0  0  0  0  0  0  0  0  0  0  0  0
  -89.4606   26.6876    2.1798 C   0  0  0  0  0  0  0  0  0  0  0  0
  -89.3790   25.5599    2.9654 C   0  0  0  0  0  0  0  0  0  0  0  0
  -89.9467   25.5393    4.2042 C   0  0  0  0  0  0  0  0  0  0  0  0
  -90.6188   26.6669    4.6895 C   0  0  0  0  0  0  0  0  0  0  0  0
  -90.6971   27.7910    3.9003 C   0  0  0  0  0  0  0  0  0  0  0  0
  -90.1202   27.7842    2.6638 C   0  0  0  0  0  0  0  0  0  0  0  0
  -90.9724   30.8804   -2.8630 C   0  0  0  0  0  0  0  0  0  0  0  0
  -89.7448   31.6736   -3.1043 C   0  0  0  0  0  0  0  0  0  0  0  0
  -88.8823   31.2333   -4.1211 C   0  0  0  0  0  0  0  0  0  0  0  0
  -87.7187   31.9062   -4.3908 C   0  0  0  0  0  0  0  0  0  0  0  0
  -87.3832   33.0384   -3.6529 C   0  0  0  0  0  0  0  0  0  0  0  0
  -88.2523   33.4628   -2.6475 C   0  0  0  0  0  0  0  0  0  0  0  0
  -89.4166   32.7804   -2.3849 C   0  0  0  0  0  0  0  0  0  0  0  0
 18 19  1  0  0  0
 19 12  1  0  0  0
 12 13  2  0  0  0
 13 14  1  0  0  0
 14 15  2  0  0  0
 15 16  1  0  0  0
 16 17  2  0  0  0
 15  9  1  0  0  0
  9 10  2  0  0  0
  9 11  2  0  0  0
  9  7  1  0  0  0
  7  6  1  0  0  0
  6 20  1  0  0  0
 20 21  1  0  0  0
 21 22  2  0  0  0
 22 23  1  0  0  0
 23 24  2  0  0  0
 24 25  1  0  0  0
 25 26  2  0  0  0
  6  2  1  0  0  0
  2  3  2  0  0  0
  2  4  1  0  0  0
  4  1  1  0  0  0
  1 55  1  0  0  0
 55 56  1  0  0  0
 56 57  2  0  0  0
 57 58  1  0  0  0
 58 59  2  0  0  0
 59 60  1  0  0  0
 60 61  2  0  0  0
  1 27  1  0  0  0
 27 28  2  0  0  0
 27 29  1  0  0  0
 29 31  1  0  0  0
 31 48  1  0  0  0
 48 49  1  0  0  0
 49 50  2  0  0  0
 50 51  1  0  0  0
 51 52  2  0  0  0
 52 53  1  0  0  0
 53 54  2  0  0  0
 31 32  1  0  0  0
 32 33  2  0  0  0
 32 34  1  0  0  0
 34 36  1  0  0  0
 36 41  1  0  0  0
 41 42  1  0  0  0
 42 43  2  0  0  0
 43 44  1  0  0  0
 44 45  2  0  0  0
 45 46  1  0  0  0
 46 47  2  0  0  0
 36 37  1  0  0  0
 37 38  1  0  0  0
 37 39  2  0  0  0
 17 12  1  0  0  0
 26 21  1  0  0  0
 61 56  1  0  0  0
 54 49  1  0  0  0
 47 42  1  0  0  0
  7  8  1  0  0  0
  4  5  1  0  0  0
 29 30  1  0  0  0
 34 35  1  0  0  0
 38 40  1  0  0  0
M  END
> <minimizedAffinity>
-9.49700

> <CNNscore>
0.0995586067

> <CNNaffinity>
7.2843947411

> <CNN_VS>
0.7252241969

> <CNNaffinity_variance>
1.0468846560

$$$$
[H]OC(=O)[C@@]([H])(N([H])C(=O)[C@@]([H])(N([H])C(=O)[C@@]([H])(N([H])C(=O)[C@@]([H])(N([H])S(=O)(=O)c1c([H])c([H])c(OC([H])([H])[H])c([H])c1[H])C([H])([H])c1c([H])c([H])c([H])c([H])c1[H])C([H])([H])c1c([H])c([H])c([H])c([H])c1[H])C([H])([H])c1c([H])c([H])c([H])c([H])c1[H])C([H])([H])c1c([H])c([H])c([H])c([H])c1[H]


 61 65  0  0  0  0  0  0  0  0999 V2000
  -90.7338   27.6351   -2.0327 C   0  0  0  0  0  0  0  0  0  0  0  0
  -91.5371   29.8022   -3.0783 C   0  0  0  0  0  0  0  0  0  0  0  0
  -92.3730   30.1962   -2.1531 O   0  0  0  0  0  0  0  0  0  0  0  0
  -90.7888   28.6599   -3.0062 N   0  0  0  0  0  0  0  0  0  0  0  0
  -90.1212   28.4958   -3.8511 H   0  0  0  0  0  0  0  0  0  0  0  0
  -91.5321   30.7760   -4.2401 C   0  0  0  0  0  0  0  0  0  0  0  0
  -90.2236   30.5558   -4.9095 N   0  0  0  0  0  0  0  0  0  0  0  0
  -90.2810   30.2570   -5.8648 H   0  0  0  0  0  0  0  0  0  0  0  0
  -88.8736   31.2183   -4.2210 S   0  0  0  0  0  0  0  0  0  0  0  0
  -88.5788   30.7167   -2.8274 O   0  0  0  0  0  0  0  0  0  0  0  0
  -87.6700   30.8076   -5.0927 O   0  0  0  0  0  0  0  0  0  0  0  0
  -88.8933   35.7644   -4.0895 C   0  0  0  0  0  0  0  0  0  0  0  0
  -88.4659   35.0015   -3.0211 C   0  0  0  0  0  0  0  0  0  0  0  0
  -88.4739   33.6305   -3.0829 C   0  0  0  0  0  0  0  0  0  0  0  0
  -88.9175   32.9620   -4.2408 C   0  0  0  0  0  0  0  0  0  0  0  0
  -89.3309   33.7264   -5.2768 C   0  0  0  0  0  0  0  0  0  0  0  0
  -89.3266   35.1272   -5.2214 C   0  0  0  0  0  0  0  0  0  0  0  0
  -90.0826   37.8323   -4.4562 C   0  0  0  0  0  0  0  0  0  0  0  0
  -88.8895   37.1642   -4.0293 O   0  0  0  0  0  0  0  0  0  0  0  0
  -92.5110   30.4861   -5.2985 C   0  0  0  0  0  0  0  0  0  0  0  0
  -93.1647   29.2052   -5.4045 C   0  0  0  0  0  0  0  0  0  0  0  0
  -92.6084   28.1361   -6.0783 C   0  0  0  0  0  0  0  0  0  0  0  0
  -93.1995   26.9117   -6.0725 C   0  0  0  0  0  0  0  0  0  0  0  0
  -94.3856   26.6861   -5.3876 C   0  0  0  0  0  0  0  0  0  0  0  0
  -94.9543   27.7589   -4.7063 C   0  0  0  0  0  0  0  0  0  0  0  0
  -94.3681   28.9940   -4.7081 C   0  0  0  0  0  0  0  0  0  0  0  0
  -90.0254   27.8083   -0.7787 C   0  0  0  0  0  0  0  0  0  0  0  0
  -90.4388   28.4866    0.1611 O   0  0  0  0  0  0  0  0  0  0  0  0
  -88.7354   27.1640   -0.5268 N   0  0  0  0  0  0  0  0  0  0  0  0
  -88.2581   26.5729   -1.2067 H   0  0  0  0  0  0  0  0  0  0  0  0
  -88.1145   27.3822    0.7677 C   0  0  0  0  0  0  0  0  0  0  0  0
  -86.8118   28.0213    0.6139 C   0  0  0  0  0  0  0  0  0  0  0  0
  -86.4911   28.4610   -0.5440 O   0  0  0  0  0  0  0  0  0  0  0  0
  -85.8864   28.1933    1.6679 N   0  0  0  0  0  0  0  0  0  0  0  0
  -86.1487   27.8105    2.5990 H   0  0  0  0  0  0  0  0  0  0  0  0
  -84.5973   28.8716    1.5338 C   0  0  0  0  0  0  0  0  0  0  0  0
  -83.5350   28.2128    2.2875 C   0  0  0  0  0  0  0  0  0  0  0  0
  -83.7108   27.0521    3.0351 O   0  0  0  0  0  0  0  0  0  0  0  0
  -82.3778   28.6856    2.2928 O   0  0  0  0  0  0  0  0  0  0  0  0
  -84.1398   27.0034    3.9422 H   0  0  0  0  0  0  0  0  0  0  0  0
  -84.8188   30.3106    1.9794 C   0  0  0  0  0  0  0  0  0  0  0  0
  -84.6621   31.3387    0.9781 C   0  0  0  0  0  0  0  0  0  0  0  0
  -83.4280   31.8635    0.6815 C   0  0  0  0  0  0  0  0  0  0  0  0
  -83.2882   32.8409   -0.3117 C   0  0  0  0  0  0  0  0  0  0  0  0
  -84.4099   33.2791   -0.9972 C   0  0  0  0  0  0  0  0  0  0  0  0
  -85.6425   32.7619   -0.7087 C   0  0  0  0  0  0  0  0  0  0  0  0
  -85.7528   31.8017    0.2714 C   0  0  0  0  0  0  0  0  0  0  0  0
  -88.2335   26.2013    1.6535 C   0  0  0  0  0  0  0  0  0  0  0  0
  -88.8717   26.3918    2.9696 C   0  0  0  0  0  0  0  0  0  0  0  0
  -89.0789   25.3056    3.7899 C   0  0  0  0  0  0  0  0  0  0  0  0
  -89.7176   25.4549    4.9845 C   0  0  0  0  0  0  0  0  0  0  0  0
  -90.1691   26.7165    5.3886 C   0  0  0  0  0  0  0  0  0  0  0  0
  -89.9592   27.7983    4.5651 C   0  0  0  0  0  0  0  0  0  0  0  0
  -89.3174   27.6204    3.3743 C   0  0  0  0  0  0  0  0  0  0  0  0
  -90.7542   26.2583   -2.5761 C   0  0  0  0  0  0  0  0  0  0  0  0
  -92.0776   25.5930   -2.5649 C   0  0  0  0  0  0  0  0  0  0  0  0
  -93.1151   26.2330   -1.8680 C   0  0  0  0  0  0  0  0  0  0  0  0
  -94.3628   25.6691   -1.7991 C   0  0  0  0  0  0  0  0  0  0  0  0
  -94.6103   24.4498   -2.4244 C   0  0  0  0  0  0  0  0  0  0  0  0
  -93.5685   23.8285   -3.1137 C   0  0  0  0  0  0  0  0  0  0  0  0
  -92.3208   24.4025   -3.1763 C   0  0  0  0  0  0  0  0  0  0  0  0
 18 19  1  0  0  0
 19 12  1  0  0  0
 12 13  2  0  0  0
 13 14  1  0  0  0
 14 15  2  0  0  0
 15 16  1  0  0  0
 16 17  2  0  0  0
 15  9  1  0  0  0
  9 10  2  0  0  0
  9 11  2  0  0  0
  9  7  1  0  0  0
  7  6  1  0  0  0
  6 20  1  0  0  0
 20 21  1  0  0  0
 21 22  2  0  0  0
 22 23  1  0  0  0
 23 24  2  0  0  0
 24 25  1  0  0  0
 25 26  2  0  0  0
  6  2  1  0  0  0
  2  3  2  0  0  0
  2  4  1  0  0  0
  4  1  1  0  0  0
  1 55  1  0  0  0
 55 56  1  0  0  0
 56 57  2  0  0  0
 57 58  1  0  0  0
 58 59  2  0  0  0
 59 60  1  0  0  0
 60 61  2  0  0  0
  1 27  1  0  0  0
 27 28  2  0  0  0
 27 29  1  0  0  0
 29 31  1  0  0  0
 31 48  1  0  0  0
 48 49  1  0  0  0
 49 50  2  0  0  0
 50 51  1  0  0  0
 51 52  2  0  0  0
 52 53  1  0  0  0
 53 54  2  0  0  0
 31 32  1  0  0  0
 32 33  2  0  0  0
 32 34  1  0  0  0
 34 36  1  0  0  0
 36 41  1  0  0  0
 41 42  1  0  0  0
 42 43  2  0  0  0
 43 44  1  0  0  0
 44 45  2  0  0  0
 45 46  1  0  0  0
 46 47  2  0  0  0
 36 37  1  0  0  0
 37 38  1  0  0  0
 37 39  2  0  0  0
 17 12  1  0  0  0
 26 21  1  0  0  0
 61 56  1  0  0  0
 54 49  1  0  0  0
 47 42  1  0  0  0
  7  8  1  0  0  0
  4  5  1  0  0  0
 29 30  1  0  0  0
 34 35  1  0  0  0
 38 40  1  0  0  0
M  END
> <minimizedAffinity>
-9.79194

> <CNNscore>
0.0781424418

> <CNNaffinity>
7.5108122826

> <CNN_VS>
0.5869132280

> <CNNaffinity_variance>
0.8457674980

$$$$
[H]OC(=O)[C@@]([H])(N([H])C(=O)[C@@]([H])(N([H])C(=O)[C@@]([H])(N([H])C(=O)[C@@]([H])(N([H])S(=O)(=O)c1c([H])c([H])c(OC([H])([H])[H])c([H])c1[H])C([H])([H])c1c([H])c([H])c([H])c([H])c1[H])C([H])([H])c1c([H])c([H])c([H])c([H])c1[H])C([H])([H])c1c([H])c([H])c([H])c([H])c1[H])C([H])([H])c1c([H])c([H])c([H])c([H])c1[H]


 61 65  0  0  0  0  0  0  0  0999 V2000
  -90.6470   29.0697   -1.7480 C   0  0  0  0  0  0  0  0  0  0  0  0
  -91.6926   27.1484   -3.0326 C   0  0  0  0  0  0  0  0  0  0  0  0
  -90.6787   26.8098   -3.7857 O   0  0  0  0  0  0  0  0  0  0  0  0
  -91.6630   28.1522   -2.1044 N   0  0  0  0  0  0  0  0  0  0  0  0
  -92.5867   28.2835   -1.5421 H   0  0  0  0  0  0  0  0  0  0  0  0
  -92.9002   26.2879   -3.3480 C   0  0  0  0  0  0  0  0  0  0  0  0
  -92.9786   26.2798   -4.8321 N   0  0  0  0  0  0  0  0  0  0  0  0
  -92.5281   25.5020   -5.2763 H   0  0  0  0  0  0  0  0  0  0  0  0
  -94.1161   27.2357   -5.5587 S   0  0  0  0  0  0  0  0  0  0  0  0
  -94.1637   27.1083   -7.0627 O   0  0  0  0  0  0  0  0  0  0  0  0
  -95.4940   26.7766   -5.0412 O   0  0  0  0  0  0  0  0  0  0  0  0
  -93.5465   31.6210   -4.4956 C   0  0  0  0  0  0  0  0  0  0  0  0
  -92.7119   30.9660   -5.3793 C   0  0  0  0  0  0  0  0  0  0  0  0
  -92.9011   29.6405   -5.6806 C   0  0  0  0  0  0  0  0  0  0  0  0
  -93.9551   28.9102   -5.0971 C   0  0  0  0  0  0  0  0  0  0  0  0
  -94.7622   29.5694   -4.2354 C   0  0  0  0  0  0  0  0  0  0  0  0
  -94.5752   30.9229   -3.9218 C   0  0  0  0  0  0  0  0  0  0  0  0
  -92.8575   33.8141   -5.2309 C   0  0  0  0  0  0  0  0  0  0  0  0
  -93.3548   32.9733   -4.1831 O   0  0  0  0  0  0  0  0  0  0  0  0
  -92.7564   24.8652   -3.0052 C   0  0  0  0  0  0  0  0  0  0  0  0
  -92.0028   24.4286   -1.8559 C   0  0  0  0  0  0  0  0  0  0  0  0
  -90.8136   23.7350   -1.9619 C   0  0  0  0  0  0  0  0  0  0  0  0
  -90.0737   23.4283   -0.8632 C   0  0  0  0  0  0  0  0  0  0  0  0
  -90.4828   23.8013    0.4097 C   0  0  0  0  0  0  0  0  0  0  0  0
  -91.6814   24.5001    0.5260 C   0  0  0  0  0  0  0  0  0  0  0  0
  -92.4331   24.8112   -0.5728 C   0  0  0  0  0  0  0  0  0  0  0  0
  -89.8663   28.9139   -0.5353 C   0  0  0  0  0  0  0  0  0  0  0  0
  -90.0003   29.6136    0.4680 O   0  0  0  0  0  0  0  0  0  0  0  0
  -88.8395   27.8786   -0.4073 N   0  0  0  0  0  0  0  0  0  0  0  0
  -88.6059   27.2212   -1.1508 H   0  0  0  0  0  0  0  0  0  0  0  0
  -88.1256   27.7898    0.8542 C   0  0  0  0  0  0  0  0  0  0  0  0
  -86.7599   28.2831    0.7099 C   0  0  0  0  0  0  0  0  0  0  0  0
  -86.3954   28.7158   -0.4376 O   0  0  0  0  0  0  0  0  0  0  0  0
  -85.8180   28.3214    1.7626 N   0  0  0  0  0  0  0  0  0  0  0  0
  -86.1188   27.9448    2.6846 H   0  0  0  0  0  0  0  0  0  0  0  0
  -84.4614   28.8545    1.6391 C   0  0  0  0  0  0  0  0  0  0  0  0
  -83.4785   28.0644    2.3740 C   0  0  0  0  0  0  0  0  0  0  0  0
  -82.1113   28.3250    2.3787 O   0  0  0  0  0  0  0  0  0  0  0  0
  -83.8406   27.0808    3.0553 O   0  0  0  0  0  0  0  0  0  0  0  0
  -81.4732   28.0991    1.6364 H   0  0  0  0  0  0  0  0  0  0  0  0
  -84.5205   30.2988    2.1177 C   0  0  0  0  0  0  0  0  0  0  0  0
  -84.3710   31.3280    1.1165 C   0  0  0  0  0  0  0  0  0  0  0  0
  -83.1319   31.7004    0.6557 C   0  0  0  0  0  0  0  0  0  0  0  0
  -83.0044   32.6813   -0.3357 C   0  0  0  0  0  0  0  0  0  0  0  0
  -84.1433   33.2787   -0.8517 C   0  0  0  0  0  0  0  0  0  0  0  0
  -85.3811   32.9139   -0.3989 C   0  0  0  0  0  0  0  0  0  0  0  0
  -85.4791   31.9467    0.5755 C   0  0  0  0  0  0  0  0  0  0  0  0
  -88.3518   26.4954    1.5374 C   0  0  0  0  0  0  0  0  0  0  0  0
  -88.9942   26.5228    2.8648 C   0  0  0  0  0  0  0  0  0  0  0  0
  -89.4666   27.7140    3.3687 C   0  0  0  0  0  0  0  0  0  0  0  0
  -90.0120   27.7676    4.6164 C   0  0  0  0  0  0  0  0  0  0  0  0
  -90.0970   26.6097    5.3980 C   0  0  0  0  0  0  0  0  0  0  0  0
  -89.6236   25.4223    4.8895 C   0  0  0  0  0  0  0  0  0  0  0  0
  -89.0820   25.3971    3.6374 C   0  0  0  0  0  0  0  0  0  0  0  0
  -90.8850   30.4635   -2.1861 C   0  0  0  0  0  0  0  0  0  0  0  0
  -89.6972   31.1718   -2.7166 C   0  0  0  0  0  0  0  0  0  0  0  0
  -89.3609   32.3997   -2.1244 C   0  0  0  0  0  0  0  0  0  0  0  0
  -88.2852   33.1212   -2.5735 C   0  0  0  0  0  0  0  0  0  0  0  0
  -87.5140   32.6368   -3.6269 C   0  0  0  0  0  0  0  0  0  0  0  0
  -87.8613   31.4144   -4.2027 C   0  0  0  0  0  0  0  0  0  0  0  0
  -88.9425   30.6991   -3.7449 C   0  0  0  0  0  0  0  0  0  0  0  0
 18 19  1  0  0  0
 19 12  1  0  0  0
 12 13  2  0  0  0
 13 14  1  0  0  0
 14 15  2  0  0  0
 15 16  1  0  0  0
 16 17  2  0  0  0
 15  9  1  0  0  0
  9 10  2  0  0  0
  9 11  2  0  0  0
  9  7  1  0  0  0
  7  6  1  0  0  0
  6 20  1  0  0  0
 20 21  1  0  0  0
 21 22  2  0  0  0
 22 23  1  0  0  0
 23 24  2  0  0  0
 24 25  1  0  0  0
 25 26  2  0  0  0
  6  2  1  0  0  0
  2  3  2  0  0  0
  2  4  1  0  0  0
  4  1  1  0  0  0
  1 55  1  0  0  0
 55 56  1  0  0  0
 56 57  2  0  0  0
 57 58  1  0  0  0
 58 59  2  0  0  0
 59 60  1  0  0  0
 60 61  2  0  0  0
  1 27  1  0  0  0
 27 28  2  0  0  0
 27 29  1  0  0  0
 29 31  1  0  0  0
 31 48  1  0  0  0
 48 49  1  0  0  0
 49 50  2  0  0  0
 50 51  1  0  0  0
 51 52  2  0  0  0
 52 53  1  0  0  0
 53 54  2  0  0  0
 31 32  1  0  0  0
 32 33  2  0  0  0
 32 34  1  0  0  0
 34 36  1  0  0  0
 36 41  1  0  0  0
 41 42  1  0  0  0
 42 43  2  0  0  0
 43 44  1  0  0  0
 44 45  2  0  0  0
 45 46  1  0  0  0
 46 47  2  0  0  0
 36 37  1  0  0  0
 37 38  1  0  0  0
 37 39  2  0  0  0
 17 12  1  0  0  0
 26 21  1  0  0  0
 61 56  1  0  0  0
 54 49  1  0  0  0
 47 42  1  0  0  0
  7  8  1  0  0  0
  4  5  1  0  0  0
 29 30  1  0  0  0
 34 35  1  0  0  0
 38 40  1  0  0  0
M  END
> <minimizedAffinity>
-9.41841

> <CNNscore>
0.0638921559

> <CNNaffinity>
7.2606878281

> <CNN_VS>
0.4639010131

> <CNNaffinity_variance>
1.3765618801

$$$$
[H]OC(=O)[C@@]([H])(N([H])C(=O)[C@@]([H])(N([H])C(=O)[C@@]([H])(N([H])C(=O)[C@@]([H])(N([H])S(=O)(=O)c1c([H])c([H])c(OC([H])([H])[H])c([H])c1[H])C([H])([H])c1c([H])c([H])c([H])c([H])c1[H])C([H])([H])c1c([H])c([H])c([H])c([H])c1[H])C([H])([H])c1c([H])c([H])c([H])c([H])c1[H])C([H])([H])c1c([H])c([H])c([H])c([H])c1[H]


 61 65  0  0  0  0  0  0  0  0999 V2000
  -87.8576   26.9124    0.5502 C   0  0  0  0  0  0  0  0  0  0  0  0
  -88.2092   29.2377   -0.4008 C   0  0  0  0  0  0  0  0  0  0  0  0
  -89.2675   29.5956    0.2788 O   0  0  0  0  0  0  0  0  0  0  0  0
  -87.5697   28.0375   -0.2574 N   0  0  0  0  0  0  0  0  0  0  0  0
  -86.6856   27.9122   -0.8814 H   0  0  0  0  0  0  0  0  0  0  0  0
  -87.8094   30.3277   -1.3755 C   0  0  0  0  0  0  0  0  0  0  0  0
  -89.0669   30.6753   -2.0873 N   0  0  0  0  0  0  0  0  0  0  0  0
  -89.7876   31.0648   -1.5093 H   0  0  0  0  0  0  0  0  0  0  0  0
  -89.0183   30.8142   -3.7347 S   0  0  0  0  0  0  0  0  0  0  0  0
  -87.9100   30.0258   -4.3908 O   0  0  0  0  0  0  0  0  0  0  0  0
  -90.3407   30.2380   -4.2791 O   0  0  0  0  0  0  0  0  0  0  0  0
  -88.6760   35.1615   -5.0267 C   0  0  0  0  0  0  0  0  0  0  0  0
  -87.6347   34.4946   -4.4124 C   0  0  0  0  0  0  0  0  0  0  0  0
  -87.7637   33.1837   -4.0271 C   0  0  0  0  0  0  0  0  0  0  0  0
  -88.9637   32.4800   -4.2495 C   0  0  0  0  0  0  0  0  0  0  0  0
  -89.9713   33.1498   -4.8534 C   0  0  0  0  0  0  0  0  0  0  0  0
  -89.8478   34.4890   -5.2493 C   0  0  0  0  0  0  0  0  0  0  0  0
  -89.2471   37.4730   -4.6317 C   0  0  0  0  0  0  0  0  0  0  0  0
  -88.5493   36.5006   -5.4189 O   0  0  0  0  0  0  0  0  0  0  0  0
  -87.4049   31.5983   -0.7554 C   0  0  0  0  0  0  0  0  0  0  0  0
  -86.0207   31.9853   -0.6396 C   0  0  0  0  0  0  0  0  0  0  0  0
  -85.5627   33.2378   -0.9972 C   0  0  0  0  0  0  0  0  0  0  0  0
  -84.2727   33.6079   -0.7791 C   0  0  0  0  0  0  0  0  0  0  0  0
  -83.3638   32.7421   -0.1866 C   0  0  0  0  0  0  0  0  0  0  0  0
  -83.8167   31.4765    0.1762 C   0  0  0  0  0  0  0  0  0  0  0  0
  -85.1114   31.0949   -0.0409 C   0  0  0  0  0  0  0  0  0  0  0  0
  -88.9416   26.0014    0.2348 C   0  0  0  0  0  0  0  0  0  0  0  0
  -90.1183   26.1956    0.5376 O   0  0  0  0  0  0  0  0  0  0  0  0
  -88.7119   24.7536   -0.4953 N   0  0  0  0  0  0  0  0  0  0  0  0
  -87.7929   24.4474   -0.8132 H   0  0  0  0  0  0  0  0  0  0  0  0
  -89.8648   23.9180   -0.7809 C   0  0  0  0  0  0  0  0  0  0  0  0
  -89.7664   22.6445   -0.0754 C   0  0  0  0  0  0  0  0  0  0  0  0
  -89.0851   21.7077   -0.6186 O   0  0  0  0  0  0  0  0  0  0  0  0
  -90.3693   22.3856    1.1761 N   0  0  0  0  0  0  0  0  0  0  0  0
  -90.9402   23.1472    1.5962 H   0  0  0  0  0  0  0  0  0  0  0  0
  -90.2400   21.1278    1.9117 C   0  0  0  0  0  0  0  0  0  0  0  0
  -91.1352   20.0896    1.4106 C   0  0  0  0  0  0  0  0  0  0  0  0
  -90.8805   19.3151    0.2825 O   0  0  0  0  0  0  0  0  0  0  0  0
  -92.2114   19.8461    1.9981 O   0  0  0  0  0  0  0  0  0  0  0  0
  -90.9903   19.6186   -0.6688 H   0  0  0  0  0  0  0  0  0  0  0  0
  -90.4948   21.4568    3.3764 C   0  0  0  0  0  0  0  0  0  0  0  0
  -90.1794   22.7964    3.8122 C   0  0  0  0  0  0  0  0  0  0  0  0
  -89.0161   23.0713    4.4886 C   0  0  0  0  0  0  0  0  0  0  0  0
  -88.7110   24.3806    4.8810 C   0  0  0  0  0  0  0  0  0  0  0  0
  -89.5962   25.4038    4.5815 C   0  0  0  0  0  0  0  0  0  0  0  0
  -90.7566   25.1394    3.9081 C   0  0  0  0  0  0  0  0  0  0  0  0
  -91.0326   23.8441    3.5331 C   0  0  0  0  0  0  0  0  0  0  0  0
  -90.2131   23.9149   -2.2204 C   0  0  0  0  0  0  0  0  0  0  0  0
  -91.2410   24.8678   -2.6800 C   0  0  0  0  0  0  0  0  0  0  0  0
  -92.5151   24.4193   -2.9468 C   0  0  0  0  0  0  0  0  0  0  0  0
  -93.4616   25.2748   -3.4257 C   0  0  0  0  0  0  0  0  0  0  0  0
  -93.1460   26.6196   -3.6508 C   0  0  0  0  0  0  0  0  0  0  0  0
  -91.8714   27.0622   -3.3824 C   0  0  0  0  0  0  0  0  0  0  0  0
  -90.9431   26.1842   -2.9039 C   0  0  0  0  0  0  0  0  0  0  0  0
  -87.5617   27.0873    1.9900 C   0  0  0  0  0  0  0  0  0  0  0  0
  -86.2988   27.7990    2.2947 C   0  0  0  0  0  0  0  0  0  0  0  0
  -85.0977   27.1141    2.0501 C   0  0  0  0  0  0  0  0  0  0  0  0
  -83.8897   27.7017    2.3237 C   0  0  0  0  0  0  0  0  0  0  0  0
  -83.8465   28.9905    2.8493 C   0  0  0  0  0  0  0  0  0  0  0  0
  -85.0493   29.6569    3.0847 C   0  0  0  0  0  0  0  0  0  0  0  0
  -86.2554   29.0583    2.8071 C   0  0  0  0  0  0  0  0  0  0  0  0
 18 19  1  0  0  0
 19 12  1  0  0  0
 12 13  2  0  0  0
 13 14  1  0  0  0
 14 15  2  0  0  0
 15 16  1  0  0  0
 16 17  2  0  0  0
 15  9  1  0  0  0
  9 10  2  0  0  0
  9 11  2  0  0  0
  9  7  1  0  0  0
  7  6  1  0  0  0
  6 20  1  0  0  0
 20 21  1  0  0  0
 21 22  2  0  0  0
 22 23  1  0  0  0
 23 24  2  0  0  0
 24 25  1  0  0  0
 25 26  2  0  0  0
  6  2  1  0  0  0
  2  3  2  0  0  0
  2  4  1  0  0  0
  4  1  1  0  0  0
  1 55  1  0  0  0
 55 56  1  0  0  0
 56 57  2  0  0  0
 57 58  1  0  0  0
 58 59  2  0  0  0
 59 60  1  0  0  0
 60 61  2  0  0  0
  1 27  1  0  0  0
 27 28  2  0  0  0
 27 29  1  0  0  0
 29 31  1  0  0  0
 31 48  1  0  0  0
 48 49  1  0  0  0
 49 50  2  0  0  0
 50 51  1  0  0  0
 51 52  2  0  0  0
 52 53  1  0  0  0
 53 54  2  0  0  0
 31 32  1  0  0  0
 32 33  2  0  0  0
 32 34  1  0  0  0
 34 36  1  0  0  0
 36 41  1  0  0  0
 41 42  1  0  0  0
 42 43  2  0  0  0
 43 44  1  0  0  0
 44 45  2  0  0  0
 45 46  1  0  0  0
 46 47  2  0  0  0
 36 37  1  0  0  0
 37 38  1  0  0  0
 37 39  2  0  0  0
 17 12  1  0  0  0
 26 21  1  0  0  0
 61 56  1  0  0  0
 54 49  1  0  0  0
 47 42  1  0  0  0
  7  8  1  0  0  0
  4  5  1  0  0  0
 29 30  1  0  0  0
 34 35  1  0  0  0
 38 40  1  0  0  0
M  END
> <minimizedAffinity>
-10.00916

> <CNNscore>
0.0607547797

> <CNNaffinity>
7.4410629272

> <CNN_VS>
0.4520801306

> <CNNaffinity_variance>
0.6499007940

$$$$
[H]OC(=O)[C@@]([H])(N([H])C(=O)[C@@]([H])(N([H])C(=O)[C@@]([H])(N([H])C(=O)[C@@]([H])(N([H])S(=O)(=O)c1c([H])c([H])c(OC([H])([H])[H])c([H])c1[H])C([H])([H])c1c([H])c([H])c([H])c([H])c1[H])C([H])([H])c1c([H])c([H])c([H])c([H])c1[H])C([H])([H])c1c([H])c([H])c([H])c([H])c1[H])C([H])([H])c1c([H])c([H])c([H])c([H])c1[H]


 61 65  0  0  0  0  0  0  0  0999 V2000
  -87.7947   30.1841   -1.2601 C   0  0  0  0  0  0  0  0  0  0  0  0
  -89.0218   30.6420   -3.4326 C   0  0  0  0  0  0  0  0  0  0  0  0
  -88.1037   30.2703   -4.2863 O   0  0  0  0  0  0  0  0  0  0  0  0
  -88.8820   30.5803   -2.0737 N   0  0  0  0  0  0  0  0  0  0  0  0
  -89.7554   30.9031   -1.5084 H   0  0  0  0  0  0  0  0  0  0  0  0
  -90.2445   31.1645   -4.1606 C   0  0  0  0  0  0  0  0  0  0  0  0
  -91.3896   30.4643   -3.5225 N   0  0  0  0  0  0  0  0  0  0  0  0
  -91.2776   30.2717   -2.5450 H   0  0  0  0  0  0  0  0  0  0  0  0
  -92.8446   30.4708   -4.3090 S   0  0  0  0  0  0  0  0  0  0  0  0
  -92.7403   30.6577   -5.8039 O   0  0  0  0  0  0  0  0  0  0  0  0
  -93.4868   29.0864   -4.0893 O   0  0  0  0  0  0  0  0  0  0  0  0
  -95.7573   33.3793   -2.3746 C   0  0  0  0  0  0  0  0  0  0  0  0
  -95.5228   32.1217   -1.8552 C   0  0  0  0  0  0  0  0  0  0  0  0
  -94.6424   31.2596   -2.4599 C   0  0  0  0  0  0  0  0  0  0  0  0
  -93.9511   31.6351   -3.6285 C   0  0  0  0  0  0  0  0  0  0  0  0
  -94.1932   32.8709   -4.1210 C   0  0  0  0  0  0  0  0  0  0  0  0
  -95.0914   33.7570   -3.5098 C   0  0  0  0  0  0  0  0  0  0  0  0
  -96.2568   34.8246   -0.5074 C   0  0  0  0  0  0  0  0  0  0  0  0
  -96.6574   34.2611   -1.7619 O   0  0  0  0  0  0  0  0  0  0  0  0
  -90.5431   32.5863   -3.9330 C   0  0  0  0  0  0  0  0  0  0  0  0
  -89.5143   33.5963   -3.9563 C   0  0  0  0  0  0  0  0  0  0  0  0
  -88.9524   34.1169   -2.8074 C   0  0  0  0  0  0  0  0  0  0  0  0
  -87.9124   34.9910   -2.8624 C   0  0  0  0  0  0  0  0  0  0  0  0
  -87.3720   35.3945   -4.0756 C   0  0  0  0  0  0  0  0  0  0  0  0
  -87.9331   34.8754   -5.2393 C   0  0  0  0  0  0  0  0  0  0  0  0
  -88.9803   33.9976   -5.1939 C   0  0  0  0  0  0  0  0  0  0  0  0
  -87.5425   28.7906   -0.9454 C   0  0  0  0  0  0  0  0  0  0  0  0
  -86.8282   28.0482   -1.6182 O   0  0  0  0  0  0  0  0  0  0  0  0
  -88.1270   28.1486    0.2330 N   0  0  0  0  0  0  0  0  0  0  0  0
  -88.7438   28.6277    0.8884 H   0  0  0  0  0  0  0  0  0  0  0  0
  -87.7984   26.7546    0.4736 C   0  0  0  0  0  0  0  0  0  0  0  0
  -88.9174   25.8910    0.1115 C   0  0  0  0  0  0  0  0  0  0  0  0
  -90.0679   26.4299   -0.0401 O   0  0  0  0  0  0  0  0  0  0  0  0
  -88.8064   24.4969   -0.0916 N   0  0  0  0  0  0  0  0  0  0  0  0
  -87.8710   24.0670    0.0578 H   0  0  0  0  0  0  0  0  0  0  0  0
  -89.9126   23.6300   -0.4975 C   0  0  0  0  0  0  0  0  0  0  0  0
  -89.7607   22.2617   -0.0127 C   0  0  0  0  0  0  0  0  0  0  0  0
  -88.5670   21.5470   -0.0497 O   0  0  0  0  0  0  0  0  0  0  0  0
  -90.7376   21.6518    0.4734 O   0  0  0  0  0  0  0  0  0  0  0  0
  -88.1743   21.1115   -0.8653 H   0  0  0  0  0  0  0  0  0  0  0  0
  -89.9827   23.7033   -2.0168 C   0  0  0  0  0  0  0  0  0  0  0  0
  -91.2785   23.9525   -2.6022 C   0  0  0  0  0  0  0  0  0  0  0  0
  -92.1051   22.9197   -2.9715 C   0  0  0  0  0  0  0  0  0  0  0  0
  -93.3708   23.1772   -3.5130 C   0  0  0  0  0  0  0  0  0  0  0  0
  -93.7865   24.4890   -3.6759 C   0  0  0  0  0  0  0  0  0  0  0  0
  -92.9702   25.5236   -3.3107 C   0  0  0  0  0  0  0  0  0  0  0  0
  -91.7314   25.2436   -2.7802 C   0  0  0  0  0  0  0  0  0  0  0  0
  -87.1304   26.5527    1.7798 C   0  0  0  0  0  0  0  0  0  0  0  0
  -86.0893   27.5198    2.1753 C   0  0  0  0  0  0  0  0  0  0  0  0
  -84.7609   27.1906    2.0246 C   0  0  0  0  0  0  0  0  0  0  0  0
  -83.7862   28.0491    2.4366 C   0  0  0  0  0  0  0  0  0  0  0  0
  -84.1277   29.2757    3.0177 C   0  0  0  0  0  0  0  0  0  0  0  0
  -85.4566   29.5995    3.1658 C   0  0  0  0  0  0  0  0  0  0  0  0
  -86.4121   28.7211    2.7448 C   0  0  0  0  0  0  0  0  0  0  0  0
  -87.4107   31.1600   -0.2155 C   0  0  0  0  0  0  0  0  0  0  0  0
  -86.0085   31.6337   -0.2766 C   0  0  0  0  0  0  0  0  0  0  0  0
  -85.7876   32.9336   -0.7593 C   0  0  0  0  0  0  0  0  0  0  0  0
  -84.5156   33.4348   -0.8610 C   0  0  0  0  0  0  0  0  0  0  0  0
  -83.4277   32.6522   -0.4832 C   0  0  0  0  0  0  0  0  0  0  0  0
  -83.6654   31.3636   -0.0043 C   0  0  0  0  0  0  0  0  0  0  0  0
  -84.9450   30.8705    0.0933 C   0  0  0  0  0  0  0  0  0  0  0  0
 18 19  1  0  0  0
 19 12  1  0  0  0
 12 13  2  0  0  0
 13 14  1  0  0  0
 14 15  2  0  0  0
 15 16  1  0  0  0
 16 17  2  0  0  0
 15  9  1  0  0  0
  9 10  2  0  0  0
  9 11  2  0  0  0
  9  7  1  0  0  0
  7  6  1  0  0  0
  6 20  1  0  0  0
 20 21  1  0  0  0
 21 22  2  0  0  0
 22 23  1  0  0  0
 23 24  2  0  0  0
 24 25  1  0  0  0
 25 26  2  0  0  0
  6  2  1  0  0  0
  2  3  2  0  0  0
  2  4  1  0  0  0
  4  1  1  0  0  0
  1 55  1  0  0  0
 55 56  1  0  0  0
 56 57  2  0  0  0
 57 58  1  0  0  0
 58 59  2  0  0  0
 59 60  1  0  0  0
 60 61  2  0  0  0
  1 27  1  0  0  0
 27 28  2  0  0  0
 27 29  1  0  0  0
 29 31  1  0  0  0
 31 48  1  0  0  0
 48 49  1  0  0  0
 49 50  2  0  0  0
 50 51  1  0  0  0
 51 52  2  0  0  0
 52 53  1  0  0  0
 53 54  2  0  0  0
 31 32  1  0  0  0
 32 33  2  0  0  0
 32 34  1  0  0  0
 34 36  1  0  0  0
 36 41  1  0  0  0
 41 42  1  0  0  0
 42 43  2  0  0  0
 43 44  1  0  0  0
 44 45  2  0  0  0
 45 46  1  0  0  0
 46 47  2  0  0  0
 36 37  1  0  0  0
 37 38  1  0  0  0
 37 39  2  0  0  0
 17 12  1  0  0  0
 26 21  1  0  0  0
 61 56  1  0  0  0
 54 49  1  0  0  0
 47 42  1  0  0  0
  7  8  1  0  0  0
  4  5  1  0  0  0
 29 30  1  0  0  0
 34 35  1  0  0  0
 38 40  1  0  0  0
M  END
> <minimizedAffinity>
-9.67369

> <CNNscore>
0.0554619357

> <CNNaffinity>
6.8357782364

> <CNN_VS>
0.3791255057

> <CNNaffinity_variance>
1.4919120073

$$$$
[H]OC(=O)[C@@]([H])(N([H])C(=O)[C@@]([H])(N([H])C(=O)[C@@]([H])(N([H])C(=O)[C@@]([H])(N([H])S(=O)(=O)c1c([H])c([H])c(OC([H])([H])[H])c([H])c1[H])C([H])([H])c1c([H])c([H])c([H])c([H])c1[H])C([H])([H])c1c([H])c([H])c([H])c([H])c1[H])C([H])([H])c1c([H])c([H])c([H])c([H])c1[H])C([H])([H])c1c([H])c([H])c([H])c([H])c1[H]


 61 65  0  0  0  0  0  0  0  0999 V2000
  -87.7668   30.6308   -1.3775 C   0  0  0  0  0  0  0  0  0  0  0  0
  -90.1499   30.8793   -2.2105 C   0  0  0  0  0  0  0  0  0  0  0  0
  -90.7948   30.4020   -1.1779 O   0  0  0  0  0  0  0  0  0  0  0  0
  -88.7896   30.9977   -2.2833 N   0  0  0  0  0  0  0  0  0  0  0  0
  -88.4173   31.4425   -3.2053 H   0  0  0  0  0  0  0  0  0  0  0  0
  -91.1186   31.2606   -3.3126 C   0  0  0  0  0  0  0  0  0  0  0  0
  -90.2874   31.9841   -4.3098 N   0  0  0  0  0  0  0  0  0  0  0  0
  -89.5580   31.4390   -4.7293 H   0  0  0  0  0  0  0  0  0  0  0  0
  -90.8790   33.3924   -4.9440 S   0  0  0  0  0  0  0  0  0  0  0  0
  -90.9382   33.4162   -6.4527 O   0  0  0  0  0  0  0  0  0  0  0  0
  -92.3326   33.5382   -4.4510 O   0  0  0  0  0  0  0  0  0  0  0  0
  -88.4833   36.9106   -3.3411 C   0  0  0  0  0  0  0  0  0  0  0  0
  -88.0529   35.6060   -3.2026 C   0  0  0  0  0  0  0  0  0  0  0  0
  -88.7960   34.5604   -3.6906 C   0  0  0  0  0  0  0  0  0  0  0  0
  -90.0201   34.7894   -4.3492 C   0  0  0  0  0  0  0  0  0  0  0  0
  -90.4240   36.0736   -4.4761 C   0  0  0  0  0  0  0  0  0  0  0  0
  -89.6712   37.1471   -3.9798 C   0  0  0  0  0  0  0  0  0  0  0  0
  -88.2848   39.2915   -2.9990 C   0  0  0  0  0  0  0  0  0  0  0  0
  -87.7290   37.9805   -2.8418 O   0  0  0  0  0  0  0  0  0  0  0  0
  -91.6652   30.1304   -4.0783 C   0  0  0  0  0  0  0  0  0  0  0  0
  -93.0374   30.0994   -4.5202 C   0  0  0  0  0  0  0  0  0  0  0  0
  -93.3942   30.1482   -5.8532 C   0  0  0  0  0  0  0  0  0  0  0  0
  -94.6894   30.0121   -6.2439 C   0  0  0  0  0  0  0  0  0  0  0  0
  -95.7057   29.8171   -5.3187 C   0  0  0  0  0  0  0  0  0  0  0  0
  -95.3551   29.7678   -3.9722 C   0  0  0  0  0  0  0  0  0  0  0  0
  -94.0558   29.9056   -3.5699 C   0  0  0  0  0  0  0  0  0  0  0  0
  -87.5739   29.2559   -0.9571 C   0  0  0  0  0  0  0  0  0  0  0  0
  -86.6769   28.5245   -1.3749 O   0  0  0  0  0  0  0  0  0  0  0  0
  -88.4497   28.6214    0.0292 N   0  0  0  0  0  0  0  0  0  0  0  0
  -89.2407   29.0929    0.4668 H   0  0  0  0  0  0  0  0  0  0  0  0
  -88.1626   27.2469    0.4000 C   0  0  0  0  0  0  0  0  0  0  0  0
  -89.2421   26.3618   -0.0247 C   0  0  0  0  0  0  0  0  0  0  0  0
  -90.4130   26.8611   -0.1539 O   0  0  0  0  0  0  0  0  0  0  0  0
  -89.0716   24.9886   -0.3116 N   0  0  0  0  0  0  0  0  0  0  0  0
  -88.1201   24.5893   -0.1798 H   0  0  0  0  0  0  0  0  0  0  0  0
  -90.1377   24.1034   -0.7801 C   0  0  0  0  0  0  0  0  0  0  0  0
  -89.8952   22.7044   -0.4421 C   0  0  0  0  0  0  0  0  0  0  0  0
  -88.6564   22.1945   -0.0646 O   0  0  0  0  0  0  0  0  0  0  0  0
  -90.8289   21.8741   -0.4816 O   0  0  0  0  0  0  0  0  0  0  0  0
  -87.8965   21.9895   -0.6889 H   0  0  0  0  0  0  0  0  0  0  0  0
  -90.2542   24.3261   -2.2819 C   0  0  0  0  0  0  0  0  0  0  0  0
  -91.5170   24.8220   -2.7754 C   0  0  0  0  0  0  0  0  0  0  0  0
  -92.6823   24.1202   -2.5857 C   0  0  0  0  0  0  0  0  0  0  0  0
  -93.9038   24.6273   -3.0463 C   0  0  0  0  0  0  0  0  0  0  0  0
  -93.9298   25.8491   -3.6997 C   0  0  0  0  0  0  0  0  0  0  0  0
  -92.7744   26.5548   -3.8927 C   0  0  0  0  0  0  0  0  0  0  0  0
  -91.5871   26.0346   -3.4297 C   0  0  0  0  0  0  0  0  0  0  0  0
  -87.6462   27.1350    1.7835 C   0  0  0  0  0  0  0  0  0  0  0  0
  -88.6211   26.8878    2.8624 C   0  0  0  0  0  0  0  0  0  0  0  0
  -89.3125   27.9445    3.4112 C   0  0  0  0  0  0  0  0  0  0  0  0
  -90.1752   27.7416    4.4464 C   0  0  0  0  0  0  0  0  0  0  0  0
  -90.3664   26.4544    4.9616 C   0  0  0  0  0  0  0  0  0  0  0  0
  -89.6732   25.4023    4.4093 C   0  0  0  0  0  0  0  0  0  0  0  0
  -88.8154   25.6338    3.3738 C   0  0  0  0  0  0  0  0  0  0  0  0
  -87.4216   31.6649   -0.3762 C   0  0  0  0  0  0  0  0  0  0  0  0
  -85.9870   32.0277   -0.3097 C   0  0  0  0  0  0  0  0  0  0  0  0
  -85.1625   31.2479    0.5172 C   0  0  0  0  0  0  0  0  0  0  0  0
  -83.8276   31.5339    0.6430 C   0  0  0  0  0  0  0  0  0  0  0  0
  -83.2777   32.6067   -0.0538 C   0  0  0  0  0  0  0  0  0  0  0  0
  -84.1110   33.3699   -0.8721 C   0  0  0  0  0  0  0  0  0  0  0  0
  -85.4485   33.0748   -0.9908 C   0  0  0  0  0  0  0  0  0  0  0  0
 18 19  1  0  0  0
 19 12  1  0  0  0
 12 13  2  0  0  0
 13 14  1  0  0  0
 14 15  2  0  0  0
 15 16  1  0  0  0
 16 17  2  0  0  0
 15  9  1  0  0  0
  9 10  2  0  0  0
  9 11  2  0  0  0
  9  7  1  0  0  0
  7  6  1  0  0  0
  6 20  1  0  0  0
 20 21  1  0  0  0
 21 22  2  0  0  0
 22 23  1  0  0  0
 23 24  2  0  0  0
 24 25  1  0  0  0
 25 26  2  0  0  0
  6  2  1  0  0  0
  2  3  2  0  0  0
  2  4  1  0  0  0
  4  1  1  0  0  0
  1 55  1  0  0  0
 55 56  1  0  0  0
 56 57  2  0  0  0
 57 58  1  0  0  0
 58 59  2  0  0  0
 59 60  1  0  0  0
 60 61  2  0  0  0
  1 27  1  0  0  0
 27 28  2  0  0  0
 27 29  1  0  0  0
 29 31  1  0  0  0
 31 48  1  0  0  0
 48 49  1  0  0  0
 49 50  2  0  0  0
 50 51  1  0  0  0
 51 52  2  0  0  0
 52 53  1  0  0  0
 53 54  2  0  0  0
 31 32  1  0  0  0
 32 33  2  0  0  0
 32 34  1  0  0  0
 34 36  1  0  0  0
 36 41  1  0  0  0
 41 42  1  0  0  0
 42 43  2  0  0  0
 43 44  1  0  0  0
 44 45  2  0  0  0
 45 46  1  0  0  0
 46 47  2  0  0  0
 36 37  1  0  0  0
 37 38  1  0  0  0
 37 39  2  0  0  0
 17 12  1  0  0  0
 26 21  1  0  0  0
 61 56  1  0  0  0
 54 49  1  0  0  0
 47 42  1  0  0  0
  7  8  1  0  0  0
  4  5  1  0  0  0
 29 30  1  0  0  0
 34 35  1  0  0  0
 38 40  1  0  0  0
M  END
> <minimizedAffinity>
-8.89030

> <CNNscore>
0.0398317240

> <CNNaffinity>
6.7231369019

> <CNN_VS>
0.2677941322

> <CNNaffinity_variance>
1.3763110638

$$$$
[H]OC(=O)[C@@]([H])(N([H])C(=O)[C@@]([H])(N([H])C(=O)[C@@]([H])(N([H])C(=O)[C@@]([H])(N([H])S(=O)(=O)c1c([H])c([H])c(OC([H])([H])[H])c([H])c1[H])C([H])([H])c1c([H])c([H])c([H])c([H])c1[H])C([H])([H])c1c([H])c([H])c([H])c([H])c1[H])C([H])([H])c1c([H])c([H])c([H])c([H])c1[H])C([H])([H])c1c([H])c([H])c([H])c([H])c1[H]


 61 65  0  0  0  0  0  0  0  0999 V2000
  -88.3567   30.1432   -1.0345 C   0  0  0  0  0  0  0  0  0  0  0  0
  -90.1474   28.7622   -2.1839 C   0  0  0  0  0  0  0  0  0  0  0  0
  -89.3907   27.9836   -2.9126 O   0  0  0  0  0  0  0  0  0  0  0  0
  -89.6733   29.7164   -1.3267 N   0  0  0  0  0  0  0  0  0  0  0  0
  -90.4404   30.2576   -0.7743 H   0  0  0  0  0  0  0  0  0  0  0  0
  -91.6129   28.4700   -2.4390 C   0  0  0  0  0  0  0  0  0  0  0  0
  -91.6367   27.7955   -3.7631 N   0  0  0  0  0  0  0  0  0  0  0  0
  -91.1296   26.9317   -3.8082 H   0  0  0  0  0  0  0  0  0  0  0  0
  -92.7962   28.2519   -4.8506 S   0  0  0  0  0  0  0  0  0  0  0  0
  -92.2745   28.4984   -6.2462 O   0  0  0  0  0  0  0  0  0  0  0  0
  -93.7990   27.0860   -4.9628 O   0  0  0  0  0  0  0  0  0  0  0  0
  -95.0393   31.9657   -3.4863 C   0  0  0  0  0  0  0  0  0  0  0  0
  -93.8102   32.0392   -4.1109 C   0  0  0  0  0  0  0  0  0  0  0  0
  -93.1502   30.9037   -4.5092 C   0  0  0  0  0  0  0  0  0  0  0  0
  -93.7102   29.6292   -4.2932 C   0  0  0  0  0  0  0  0  0  0  0  0
  -94.9149   29.5780   -3.6814 C   0  0  0  0  0  0  0  0  0  0  0  0
  -95.5952   30.7331   -3.2708 C   0  0  0  0  0  0  0  0  0  0  0  0
  -95.7220   33.4016   -1.6705 C   0  0  0  0  0  0  0  0  0  0  0  0
  -95.7149   33.1224   -3.0755 O   0  0  0  0  0  0  0  0  0  0  0  0
  -92.2146   27.4759   -1.5378 C   0  0  0  0  0  0  0  0  0  0  0  0
  -91.5433   27.0198   -0.3460 C   0  0  0  0  0  0  0  0  0  0  0  0
  -91.2518   27.8559    0.7136 C   0  0  0  0  0  0  0  0  0  0  0  0
  -90.7125   27.3756    1.8656 C   0  0  0  0  0  0  0  0  0  0  0  0
  -90.4343   26.0250    2.0241 C   0  0  0  0  0  0  0  0  0  0  0  0
  -90.7239   25.1748    0.9603 C   0  0  0  0  0  0  0  0  0  0  0  0
  -91.2645   25.6489   -0.2025 C   0  0  0  0  0  0  0  0  0  0  0  0
  -87.9655   31.5370   -1.1283 C   0  0  0  0  0  0  0  0  0  0  0  0
  -88.6320   32.4732   -0.6886 O   0  0  0  0  0  0  0  0  0  0  0  0
  -86.7104   31.9443   -1.7617 N   0  0  0  0  0  0  0  0  0  0  0  0
  -86.0498   31.2883   -2.1775 H   0  0  0  0  0  0  0  0  0  0  0  0
  -86.3981   33.3623   -1.7883 C   0  0  0  0  0  0  0  0  0  0  0  0
  -86.8391   33.9643   -3.0421 C   0  0  0  0  0  0  0  0  0  0  0  0
  -87.1521   33.1836   -4.0062 O   0  0  0  0  0  0  0  0  0  0  0  0
  -86.9513   35.3570   -3.2538 N   0  0  0  0  0  0  0  0  0  0  0  0
  -86.6713   35.9817   -2.4705 H   0  0  0  0  0  0  0  0  0  0  0  0
  -87.4342   35.9688   -4.4918 C   0  0  0  0  0  0  0  0  0  0  0  0
  -86.8483   37.2834   -4.7342 C   0  0  0  0  0  0  0  0  0  0  0  0
  -85.4920   37.5070   -4.9522 O   0  0  0  0  0  0  0  0  0  0  0  0
  -87.5713   38.3030   -4.7548 O   0  0  0  0  0  0  0  0  0  0  0  0
  -84.7825   37.5198   -4.2411 H   0  0  0  0  0  0  0  0  0  0  0  0
  -88.9521   36.0205   -4.3836 C   0  0  0  0  0  0  0  0  0  0  0  0
  -89.7071   35.4366   -5.4666 C   0  0  0  0  0  0  0  0  0  0  0  0
  -89.7127   36.0018   -6.7183 C   0  0  0  0  0  0  0  0  0  0  0  0
  -90.4280   35.4085   -7.7661 C   0  0  0  0  0  0  0  0  0  0  0  0
  -91.1356   34.2406   -7.5305 C   0  0  0  0  0  0  0  0  0  0  0  0
  -91.1354   33.6707   -6.2873 C   0  0  0  0  0  0  0  0  0  0  0  0
  -90.4237   34.2733   -5.2749 C   0  0  0  0  0  0  0  0  0  0  0  0
  -85.0286   33.6447   -1.3002 C   0  0  0  0  0  0  0  0  0  0  0  0
  -84.4555   32.7294   -0.2956 C   0  0  0  0  0  0  0  0  0  0  0  0
  -83.2426   32.1246   -0.5382 C   0  0  0  0  0  0  0  0  0  0  0  0
  -82.7253   31.2333    0.3533 C   0  0  0  0  0  0  0  0  0  0  0  0
  -83.4240   30.9243    1.5260 C   0  0  0  0  0  0  0  0  0  0  0  0
  -84.6354   31.5316    1.7634 C   0  0  0  0  0  0  0  0  0  0  0  0
  -85.1302   32.4199    0.8537 C   0  0  0  0  0  0  0  0  0  0  0  0
  -87.2987   29.1552   -1.3439 C   0  0  0  0  0  0  0  0  0  0  0  0
  -86.9601   28.2244   -0.2424 C   0  0  0  0  0  0  0  0  0  0  0  0
  -86.0481   28.6754    0.7253 C   0  0  0  0  0  0  0  0  0  0  0  0
  -85.6733   27.8638    1.7646 C   0  0  0  0  0  0  0  0  0  0  0  0
  -86.1989   26.5785    1.8676 C   0  0  0  0  0  0  0  0  0  0  0  0
  -87.1050   26.1472    0.8984 C   0  0  0  0  0  0  0  0  0  0  0  0
  -87.4738   26.9690   -0.1402 C   0  0  0  0  0  0  0  0  0  0  0  0
 18 19  1  0  0  0
 19 12  1  0  0  0
 12 13  2  0  0  0
 13 14  1  0  0  0
 14 15  2  0  0  0
 15 16  1  0  0  0
 16 17  2  0  0  0
 15  9  1  0  0  0
  9 10  2  0  0  0
  9 11  2  0  0  0
  9  7  1  0  0  0
  7  6  1  0  0  0
  6 20  1  0  0  0
 20 21  1  0  0  0
 21 22  2  0  0  0
 22 23  1  0  0  0
 23 24  2  0  0  0
 24 25  1  0  0  0
 25 26  2  0  0  0
  6  2  1  0  0  0
  2  3  2  0  0  0
  2  4  1  0  0  0
  4  1  1  0  0  0
  1 55  1  0  0  0
 55 56  1  0  0  0
 56 57  2  0  0  0
 57 58  1  0  0  0
 58 59  2  0  0  0
 59 60  1  0  0  0
 60 61  2  0  0  0
  1 27  1  0  0  0
 27 28  2  0  0  0
 27 29  1  0  0  0
 29 31  1  0  0  0
 31 48  1  0  0  0
 48 49  1  0  0  0
 49 50  2  0  0  0
 50 51  1  0  0  0
 51 52  2  0  0  0
 52 53  1  0  0  0
 53 54  2  0  0  0
 31 32  1  0  0  0
 32 33  2  0  0  0
 32 34  1  0  0  0
 34 36  1  0  0  0
 36 41  1  0  0  0
 41 42  1  0  0  0
 42 43  2  0  0  0
 43 44  1  0  0  0
 44 45  2  0  0  0
 45 46  1  0  0  0
 46 47  2  0  0  0
 36 37  1  0  0  0
 37 38  1  0  0  0
 37 39  2  0  0  0
 17 12  1  0  0  0
 26 21  1  0  0  0
 61 56  1  0  0  0
 54 49  1  0  0  0
 47 42  1  0  0  0
  7  8  1  0  0  0
  4  5  1  0  0  0
 29 30  1  0  0  0
 34 35  1  0  0  0
 38 40  1  0  0  0
M  END
> <minimizedAffinity>
-8.75240

> <CNNscore>
0.0384465121

> <CNNaffinity>
6.5224556923

> <CNN_VS>
0.2507656813

> <CNNaffinity_variance>
1.9784328938

$$$$
[H]OC(=O)[C@@]([H])(N([H])C(=O)[C@@]([H])(N([H])C(=O)[C@@]([H])(N([H])C(=O)[C@@]([H])(N([H])S(=O)(=O)c1c([H])c([H])c(OC([H])([H])[H])c([H])c1[H])C([H])([H])c1c([H])c([H])c([H])c([H])c1[H])C([H])([H])c1c([H])c([H])c([H])c([H])c1[H])C([H])([H])c1c([H])c([H])c([H])c([H])c1[H])C([H])([H])c1c([H])c([H])c([H])c([H])c1[H]


 61 65  0  0  0  0  0  0  0  0999 V2000
  -91.9388   27.4543   -1.8378 C   0  0  0  0  0  0  0  0  0  0  0  0
  -91.2957   25.6191   -0.2088 C   0  0  0  0  0  0  0  0  0  0  0  0
  -90.0760   25.3812   -0.6158 O   0  0  0  0  0  0  0  0  0  0  0  0
  -92.1187   26.5673   -0.7506 N   0  0  0  0  0  0  0  0  0  0  0  0
  -93.0939   26.6542   -0.2730 H   0  0  0  0  0  0  0  0  0  0  0  0
  -91.6686   24.6870    0.9271 C   0  0  0  0  0  0  0  0  0  0  0  0
  -91.6489   23.3299    0.3216 N   0  0  0  0  0  0  0  0  0  0  0  0
  -90.7573   22.8716    0.3368 H   0  0  0  0  0  0  0  0  0  0  0  0
  -93.0919   22.5513    0.1043 S   0  0  0  0  0  0  0  0  0  0  0  0
  -93.0469   21.0700    0.3943 O   0  0  0  0  0  0  0  0  0  0  0  0
  -94.0924   23.1590    1.1078 O   0  0  0  0  0  0  0  0  0  0  0  0
  -94.6361   23.3304   -4.1021 C   0  0  0  0  0  0  0  0  0  0  0  0
  -93.3073   23.4966   -3.7660 C   0  0  0  0  0  0  0  0  0  0  0  0
  -92.8660   23.2598   -2.4882 C   0  0  0  0  0  0  0  0  0  0  0  0
  -93.7577   22.8383   -1.4824 C   0  0  0  0  0  0  0  0  0  0  0  0
  -95.0544   22.6800   -1.8313 C   0  0  0  0  0  0  0  0  0  0  0  0
  -95.5133   22.9204   -3.1340 C   0  0  0  0  0  0  0  0  0  0  0  0
  -96.4537   23.2338   -5.6871 C   0  0  0  0  0  0  0  0  0  0  0  0
  -95.0910   23.5739   -5.4047 O   0  0  0  0  0  0  0  0  0  0  0  0
  -90.6747   24.5942    2.0069 C   0  0  0  0  0  0  0  0  0  0  0  0
  -90.4256   25.6887    2.9121 C   0  0  0  0  0  0  0  0  0  0  0  0
  -90.5095   27.0117    2.5256 C   0  0  0  0  0  0  0  0  0  0  0  0
  -90.3717   28.0213    3.4256 C   0  0  0  0  0  0  0  0  0  0  0  0
  -90.1426   27.7634    4.7702 C   0  0  0  0  0  0  0  0  0  0  0  0
  -90.0554   26.4322    5.1686 C   0  0  0  0  0  0  0  0  0  0  0  0
  -90.1907   25.4104    4.2704 C   0  0  0  0  0  0  0  0  0  0  0  0
  -90.7678   28.3036   -1.9467 C   0  0  0  0  0  0  0  0  0  0  0  0
  -89.9792   28.2763   -2.8908 O   0  0  0  0  0  0  0  0  0  0  0  0
  -90.4328   29.2900   -0.9184 N   0  0  0  0  0  0  0  0  0  0  0  0
  -90.9845   29.4327   -0.0729 H   0  0  0  0  0  0  0  0  0  0  0  0
  -89.2508   30.1073   -1.1281 C   0  0  0  0  0  0  0  0  0  0  0  0
  -88.0481   29.3897   -0.7188 C   0  0  0  0  0  0  0  0  0  0  0  0
  -87.0252   29.4451   -1.4852 O   0  0  0  0  0  0  0  0  0  0  0  0
  -87.9406   28.6451    0.4774 N   0  0  0  0  0  0  0  0  0  0  0  0
  -88.7865   28.5881    1.0804 H   0  0  0  0  0  0  0  0  0  0  0  0
  -86.7260   27.9590    0.9178 C   0  0  0  0  0  0  0  0  0  0  0  0
  -86.9785   26.5840    1.3373 C   0  0  0  0  0  0  0  0  0  0  0  0
  -87.3656   25.5620    0.4754 O   0  0  0  0  0  0  0  0  0  0  0  0
  -86.8534   26.2567    2.5373 O   0  0  0  0  0  0  0  0  0  0  0  0
  -88.2908   25.4304    0.1071 H   0  0  0  0  0  0  0  0  0  0  0  0
  -86.1326   28.8071    2.0346 C   0  0  0  0  0  0  0  0  0  0  0  0
  -85.0030   29.6398    1.6962 C   0  0  0  0  0  0  0  0  0  0  0  0
  -85.1752   30.9138    1.2128 C   0  0  0  0  0  0  0  0  0  0  0  0
  -84.0693   31.7196    0.9147 C   0  0  0  0  0  0  0  0  0  0  0  0
  -82.7916   31.2202    1.1108 C   0  0  0  0  0  0  0  0  0  0  0  0
  -82.6107   29.9530    1.5920 C   0  0  0  0  0  0  0  0  0  0  0  0
  -83.7144   29.1817    1.8778 C   0  0  0  0  0  0  0  0  0  0  0  0
  -89.4443   31.5022   -0.6696 C   0  0  0  0  0  0  0  0  0  0  0  0
  -88.6678   32.5601   -1.3430 C   0  0  0  0  0  0  0  0  0  0  0  0
  -89.2133   33.2265   -2.4173 C   0  0  0  0  0  0  0  0  0  0  0  0
  -88.4887   34.1672   -3.0860 C   0  0  0  0  0  0  0  0  0  0  0  0
  -87.1811   34.4648   -2.6856 C   0  0  0  0  0  0  0  0  0  0  0  0
  -86.6412   33.7959   -1.6114 C   0  0  0  0  0  0  0  0  0  0  0  0
  -87.3887   32.8585   -0.9601 C   0  0  0  0  0  0  0  0  0  0  0  0
  -93.1898   28.0063   -2.4046 C   0  0  0  0  0  0  0  0  0  0  0  0
  -93.3386   27.8607   -3.8711 C   0  0  0  0  0  0  0  0  0  0  0  0
  -94.1313   28.8099   -4.5361 C   0  0  0  0  0  0  0  0  0  0  0  0
  -94.3293   28.7299   -5.8903 C   0  0  0  0  0  0  0  0  0  0  0  0
  -93.7409   27.6999   -6.6195 C   0  0  0  0  0  0  0  0  0  0  0  0
  -92.9551   26.7664   -5.9431 C   0  0  0  0  0  0  0  0  0  0  0  0
  -92.7634   26.8555   -4.5846 C   0  0  0  0  0  0  0  0  0  0  0  0
 18 19  1  0  0  0
 19 12  1  0  0  0
 12 13  2  0  0  0
 13 14  1  0  0  0
 14 15  2  0  0  0
 15 16  1  0  0  0
 16 17  2  0  0  0
 15  9  1  0  0  0
  9 10  2  0  0  0
  9 11  2  0  0  0
  9  7  1  0  0  0
  7  6  1  0  0  0
  6 20  1  0  0  0
 20 21  1  0  0  0
 21 22  2  0  0  0
 22 23  1  0  0  0
 23 24  2  0  0  0
 24 25  1  0  0  0
 25 26  2  0  0  0
  6  2  1  0  0  0
  2  3  2  0  0  0
  2  4  1  0  0  0
  4  1  1  0  0  0
  1 55  1  0  0  0
 55 56  1  0  0  0
 56 57  2  0  0  0
 57 58  1  0  0  0
 58 59  2  0  0  0
 59 60  1  0  0  0
 60 61  2  0  0  0
  1 27  1  0  0  0
 27 28  2  0  0  0
 27 29  1  0  0  0
 29 31  1  0  0  0
 31 48  1  0  0  0
 48 49  1  0  0  0
 49 50  2  0  0  0
 50 51  1  0  0  0
 51 52  2  0  0  0
 52 53  1  0  0  0
 53 54  2  0  0  0
 31 32  1  0  0  0
 32 33  2  0  0  0
 32 34  1  0  0  0
 34 36  1  0  0  0
 36 41  1  0  0  0
 41 42  1  0  0  0
 42 43  2  0  0  0
 43 44  1  0  0  0
 44 45  2  0  0  0
 45 46  1  0  0  0
 46 47  2  0  0  0
 36 37  1  0  0  0
 37 38  1  0  0  0
 37 39  2  0  0  0
 17 12  1  0  0  0
 26 21  1  0  0  0
 61 56  1  0  0  0
 54 49  1  0  0  0
 47 42  1  0  0  0
  7  8  1  0  0  0
  4  5  1  0  0  0
 29 30  1  0  0  0
 34 35  1  0  0  0
 38 40  1  0  0  0
M  END
> <minimizedAffinity>
-9.58967

> <CNNscore>
0.0372174010

> <CNNaffinity>
6.7172689438

> <CNN_VS>
0.2499992847

> <CNNaffinity_variance>
1.2189676762

$$$$
[H]OC(=O)[C@@]([H])(N([H])C(=O)[C@@]([H])(N([H])C(=O)[C@@]([H])(N([H])C(=O)[C@@]([H])(N([H])S(=O)(=O)c1c([H])c([H])c(OC([H])([H])[H])c([H])c1[H])C([H])([H])c1c([H])c([H])c([H])c([H])c1[H])C([H])([H])c1c([H])c([H])c([H])c([H])c1[H])C([H])([H])c1c([H])c([H])c([H])c([H])c1[H])C([H])([H])c1c([H])c([H])c([H])c([H])c1[H]


 61 65  0  0  0  0  0  0  0  0999 V2000
  -89.8157   29.7632   -1.4097 C   0  0  0  0  0  0  0  0  0  0  0  0
  -88.8119   32.0929   -1.4160 C   0  0  0  0  0  0  0  0  0  0  0  0
  -89.5040   32.6332   -0.4470 O   0  0  0  0  0  0  0  0  0  0  0  0
  -88.9441   30.7958   -1.8283 N   0  0  0  0  0  0  0  0  0  0  0  0
  -88.2692   30.4991   -2.6303 H   0  0  0  0  0  0  0  0  0  0  0  0
  -87.8644   33.1086   -2.0233 C   0  0  0  0  0  0  0  0  0  0  0  0
  -86.5411   32.4322   -2.0284 N   0  0  0  0  0  0  0  0  0  0  0  0
  -86.3075   31.9639   -2.8836 H   0  0  0  0  0  0  0  0  0  0  0  0
  -85.4394   32.8642   -0.8729 S   0  0  0  0  0  0  0  0  0  0  0  0
  -84.1690   33.4679   -1.4226 O   0  0  0  0  0  0  0  0  0  0  0  0
  -86.0962   33.9548   -0.0032 O   0  0  0  0  0  0  0  0  0  0  0  0
  -84.2741   29.4896    1.9447 C   0  0  0  0  0  0  0  0  0  0  0  0
  -83.3485   30.3906    1.4570 C   0  0  0  0  0  0  0  0  0  0  0  0
  -83.7238   31.3980    0.6038 C   0  0  0  0  0  0  0  0  0  0  0  0
  -85.0664   31.5422    0.2023 C   0  0  0  0  0  0  0  0  0  0  0  0
  -85.9579   30.6510    0.6915 C   0  0  0  0  0  0  0  0  0  0  0  0
  -85.5826   29.6188    1.5628 C   0  0  0  0  0  0  0  0  0  0  0  0
  -82.6427   27.8153    2.5452 C   0  0  0  0  0  0  0  0  0  0  0  0
  -83.8945   28.4580    2.8136 O   0  0  0  0  0  0  0  0  0  0  0  0
  -88.1011   33.4081   -3.4434 C   0  0  0  0  0  0  0  0  0  0  0  0
  -87.9901   34.7454   -3.9710 C   0  0  0  0  0  0  0  0  0  0  0  0
  -87.9107   35.0107   -5.3237 C   0  0  0  0  0  0  0  0  0  0  0  0
  -87.9121   36.2858   -5.7955 C   0  0  0  0  0  0  0  0  0  0  0  0
  -87.9949   37.3731   -4.9366 C   0  0  0  0  0  0  0  0  0  0  0  0
  -88.0742   37.1150   -3.5707 C   0  0  0  0  0  0  0  0  0  0  0  0
  -88.0715   35.8362   -3.0870 C   0  0  0  0  0  0  0  0  0  0  0  0
  -91.0527   29.4749   -2.1106 C   0  0  0  0  0  0  0  0  0  0  0  0
  -92.1249   29.2425   -1.5536 O   0  0  0  0  0  0  0  0  0  0  0  0
  -91.1219   29.4475   -3.5725 N   0  0  0  0  0  0  0  0  0  0  0  0
  -90.3193   29.6161   -4.1782 H   0  0  0  0  0  0  0  0  0  0  0  0
  -92.4108   29.1693   -4.1810 C   0  0  0  0  0  0  0  0  0  0  0  0
  -92.6408   27.7310   -4.2672 C   0  0  0  0  0  0  0  0  0  0  0  0
  -92.0632   27.0854   -5.2088 O   0  0  0  0  0  0  0  0  0  0  0  0
  -93.4548   27.0055   -3.3683 N   0  0  0  0  0  0  0  0  0  0  0  0
  -93.9378   27.5452   -2.6216 H   0  0  0  0  0  0  0  0  0  0  0  0
  -93.6564   25.5575   -3.4199 C   0  0  0  0  0  0  0  0  0  0  0  0
  -94.9063   25.1876   -4.0768 C   0  0  0  0  0  0  0  0  0  0  0  0
  -95.0882   25.1665   -5.4565 O   0  0  0  0  0  0  0  0  0  0  0  0
  -95.9046   24.8632   -3.3979 O   0  0  0  0  0  0  0  0  0  0  0  0
  -95.2299   25.9737   -6.0373 H   0  0  0  0  0  0  0  0  0  0  0  0
  -93.5870   25.0610   -1.9822 C   0  0  0  0  0  0  0  0  0  0  0  0
  -92.2799   24.7351   -1.4633 C   0  0  0  0  0  0  0  0  0  0  0  0
  -91.8785   25.1625   -0.2212 C   0  0  0  0  0  0  0  0  0  0  0  0
  -90.6177   24.8153    0.2799 C   0  0  0  0  0  0  0  0  0  0  0  0
  -89.7716   24.0336   -0.4903 C   0  0  0  0  0  0  0  0  0  0  0  0
  -90.1631   23.6034   -1.7280 C   0  0  0  0  0  0  0  0  0  0  0  0
  -91.4076   23.9579   -2.1971 C   0  0  0  0  0  0  0  0  0  0  0  0
  -92.6602   30.0080   -5.3758 C   0  0  0  0  0  0  0  0  0  0  0  0
  -92.8799   31.4516   -5.1676 C   0  0  0  0  0  0  0  0  0  0  0  0
  -91.8319   32.3302   -5.3268 C   0  0  0  0  0  0  0  0  0  0  0  0
  -92.0033   33.6601   -5.0837 C   0  0  0  0  0  0  0  0  0  0  0  0
  -93.2489   34.1454   -4.6694 C   0  0  0  0  0  0  0  0  0  0  0  0
  -94.2926   33.2630   -4.5121 C   0  0  0  0  0  0  0  0  0  0  0  0
  -94.0932   31.9365   -4.7619 C   0  0  0  0  0  0  0  0  0  0  0  0
  -89.8285   29.5124    0.0490 C   0  0  0  0  0  0  0  0  0  0  0  0
  -88.9696   28.3958    0.5069 C   0  0  0  0  0  0  0  0  0  0  0  0
  -88.1489   27.7790   -0.4510 C   0  0  0  0  0  0  0  0  0  0  0  0
  -87.3396   26.7278   -0.1056 C   0  0  0  0  0  0  0  0  0  0  0  0
  -87.3264   26.2624    1.2067 C   0  0  0  0  0  0  0  0  0  0  0  0
  -88.1469   26.8878    2.1460 C   0  0  0  0  0  0  0  0  0  0  0  0
  -88.9551   27.9411    1.7888 C   0  0  0  0  0  0  0  0  0  0  0  0
 18 19  1  0  0  0
 19 12  1  0  0  0
 12 13  2  0  0  0
 13 14  1  0  0  0
 14 15  2  0  0  0
 15 16  1  0  0  0
 16 17  2  0  0  0
 15  9  1  0  0  0
  9 10  2  0  0  0
  9 11  2  0  0  0
  9  7  1  0  0  0
  7  6  1  0  0  0
  6 20  1  0  0  0
 20 21  1  0  0  0
 21 22  2  0  0  0
 22 23  1  0  0  0
 23 24  2  0  0  0
 24 25  1  0  0  0
 25 26  2  0  0  0
  6  2  1  0  0  0
  2  3  2  0  0  0
  2  4  1  0  0  0
  4  1  1  0  0  0
  1 55  1  0  0  0
 55 56  1  0  0  0
 56 57  2  0  0  0
 57 58  1  0  0  0
 58 59  2  0  0  0
 59 60  1  0  0  0
 60 61  2  0  0  0
  1 27  1  0  0  0
 27 28  2  0  0  0
 27 29  1  0  0  0
 29 31  1  0  0  0
 31 48  1  0  0  0
 48 49  1  0  0  0
 49 50  2  0  0  0
 50 51  1  0  0  0
 51 52  2  0  0  0
 52 53  1  0  0  0
 53 54  2  0  0  0
 31 32  1  0  0  0
 32 33  2  0  0  0
 32 34  1  0  0  0
 34 36  1  0  0  0
 36 41  1  0  0  0
 41 42  1  0  0  0
 42 43  2  0  0  0
 43 44  1  0  0  0
 44 45  2  0  0  0
 45 46  1  0  0  0
 46 47  2  0  0  0
 36 37  1  0  0  0
 37 38  1  0  0  0
 37 39  2  0  0  0
 17 12  1  0  0  0
 26 21  1  0  0  0
 61 56  1  0  0  0
 54 49  1  0  0  0
 47 42  1  0  0  0
  7  8  1  0  0  0
  4  5  1  0  0  0
 29 30  1  0  0  0
 34 35  1  0  0  0
 38 40  1  0  0  0
M  END
> <minimizedAffinity>
-8.04331

> <CNNscore>
0.0356220379

> <CNNaffinity>
6.5621709824

> <CNN_VS>
0.2337578982

> <CNNaffinity_variance>
1.6971714497

$$$$
[H]c1c([H])c(C2([H])C([H])([H])C([H])([H])N(S(=O)(=O)N(C([H])([H])[H])C([H])([H])[H])C([H])([H])C2([H])[H])c([H])c([H])c1-c1nc(C(N2C([H])([H])C([H])([H])OC([H])([H])C2([H])[H])(C([H])([H])[H])C([H])([H])[H])n([H])c1[H]


 33 36  0  0  0  0  0  0  0  0999 V2000
  -88.6870   29.3726    0.2369 C   0  0  0  0  0  0  0  0  0  0  0  0
  -89.5968   30.3361   -0.2177 C   0  0  0  0  0  0  0  0  0  0  0  0
  -89.1658   31.3658   -1.0070 C   0  0  0  0  0  0  0  0  0  0  0  0
  -87.8495   31.5144   -1.3927 C   0  0  0  0  0  0  0  0  0  0  0  0
  -86.9510   30.5884   -0.9616 C   0  0  0  0  0  0  0  0  0  0  0  0
  -87.3745   29.5271   -0.1524 C   0  0  0  0  0  0  0  0  0  0  0  0
  -90.1168   26.1783    2.4047 N   0  0  0  0  0  0  0  0  0  0  0  0
  -89.1841   25.8055    1.4280 C   0  0  0  0  0  0  0  0  0  0  0  0
  -88.4655   26.9625    0.7813 C   0  0  0  0  0  0  0  0  0  0  0  0
  -89.1618   28.2809    1.0843 C   0  0  0  0  0  0  0  0  0  0  0  0
  -90.6553   28.1413    1.0573 C   0  0  0  0  0  0  0  0  0  0  0  0
  -91.1082   27.1328    2.1015 C   0  0  0  0  0  0  0  0  0  0  0  0
  -90.3900   25.2132    3.7383 S   0  0  0  0  0  0  0  0  0  0  0  0
  -91.3158   25.9523    4.7072 O   0  0  0  0  0  0  0  0  0  0  0  0
  -89.1348   24.8755    4.5129 O   0  0  0  0  0  0  0  0  0  0  0  0
  -90.4500   22.5623    3.6490 C   0  0  0  0  0  0  0  0  0  0  0  0
  -91.1928   23.7411    3.3711 N   0  0  0  0  0  0  0  0  0  0  0  0
  -91.7179   23.7403    2.0434 C   0  0  0  0  0  0  0  0  0  0  0  0
  -87.4550   32.6573   -2.2347 C   0  0  0  0  0  0  0  0  0  0  0  0
  -86.2137   33.1745   -2.4481 C   0  0  0  0  0  0  0  0  0  0  0  0
  -86.3529   34.2093   -3.2827 N   0  0  0  0  0  0  0  0  0  0  0  0
  -87.6380   34.3858   -3.6215 C   0  0  0  0  0  0  0  0  0  0  0  0
  -88.3038   33.4079   -2.9568 N   0  0  0  0  0  0  0  0  0  0  0  0
  -85.5574   34.7947   -3.6191 H   0  0  0  0  0  0  0  0  0  0  0  0
  -88.2787   35.3934   -4.5035 C   0  0  0  0  0  0  0  0  0  0  0  0
  -89.1795   34.6997   -5.5184 C   0  0  0  0  0  0  0  0  0  0  0  0
  -89.1985   36.2005   -3.6071 C   0  0  0  0  0  0  0  0  0  0  0  0
  -87.3676   36.2072   -5.2387 N   0  0  0  0  0  0  0  0  0  0  0  0
  -88.1092   36.7000   -6.4122 C   0  0  0  0  0  0  0  0  0  0  0  0
  -87.0750   37.0850   -7.4486 C   0  0  0  0  0  0  0  0  0  0  0  0
  -86.0278   37.6982   -6.7969 O   0  0  0  0  0  0  0  0  0  0  0  0
  -86.4332   38.3632   -5.6400 C   0  0  0  0  0  0  0  0  0  0  0  0
  -86.8725   37.3669   -4.5582 C   0  0  0  0  0  0  0  0  0  0  0  0
 16 17  1  0  0  0
 17 18  1  0  0  0
 17 13  1  0  0  0
 13 14  2  0  0  0
 13 15  2  0  0  0
 13  7  1  0  0  0
  7  8  1  0  0  0
  8  9  1  0  0  0
  9 10  1  0  0  0
 10 11  1  0  0  0
 11 12  1  0  0  0
 10  1  1  0  0  0
  1  2  2  0  0  0
  2  3  1  0  0  0
  3  4  2  0  0  0
  4  5  1  0  0  0
  5  6  2  0  0  0
  4 19  1  0  0  0
 19 20  2  0  0  0
 20 21  1  0  0  0
 21 22  1  0  0  0
 22 23  2  0  0  0
 22 25  1  0  0  0
 25 26  1  0  0  0
 25 27  1  0  0  0
 25 28  1  0  0  0
 28 29  1  0  0  0
 29 30  1  0  0  0
 30 31  1  0  0  0
 31 32  1  0  0  0
 32 33  1  0  0  0
 12  7  1  0  0  0
  6  1  1  0  0  0
 23 19  1  0  0  0
 33 28  1  0  0  0
 21 24  1  0  0  0
M  END
> <minimizedAffinity>
-8.26716

> <CNNscore>
0.2161778957

> <CNNaffinity>
6.1540760994

> <CNN_VS>
1.3303751945

> <CNNaffinity_variance>
0.2152229846

$$$$
[H]c1c([H])c(C2([H])C([H])([H])C([H])([H])N(S(=O)(=O)N(C([H])([H])[H])C([H])([H])[H])C([H])([H])C2([H])[H])c([H])c([H])c1-c1nc(C(N2C([H])([H])C([H])([H])OC([H])([H])C2([H])[H])(C([H])([H])[H])C([H])([H])[H])n([H])c1[H]


 33 36  0  0  0  0  0  0  0  0999 V2000
  -88.8731   29.7768   -0.0025 C   0  0  0  0  0  0  0  0  0  0  0  0
  -87.5807   29.8693   -0.5355 C   0  0  0  0  0  0  0  0  0  0  0  0
  -87.2231   30.9600   -1.2783 C   0  0  0  0  0  0  0  0  0  0  0  0
  -88.0860   32.0041   -1.5402 C   0  0  0  0  0  0  0  0  0  0  0  0
  -89.3453   31.9328   -1.0307 C   0  0  0  0  0  0  0  0  0  0  0  0
  -89.7291   30.8232   -0.2678 C   0  0  0  0  0  0  0  0  0  0  0  0
  -90.0836   26.4034    2.0226 N   0  0  0  0  0  0  0  0  0  0  0  0
  -89.5563   26.1232    0.7552 C   0  0  0  0  0  0  0  0  0  0  0  0
  -88.8876   27.2978    0.0869 C   0  0  0  0  0  0  0  0  0  0  0  0
  -89.2421   28.6025    0.7848 C   0  0  0  0  0  0  0  0  0  0  0  0
  -90.6780   28.6302    1.2184 C   0  0  0  0  0  0  0  0  0  0  0  0
  -90.9545   27.4978    2.1951 C   0  0  0  0  0  0  0  0  0  0  0  0
  -90.0978   25.2399    3.2187 S   0  0  0  0  0  0  0  0  0  0  0  0
  -91.2027   25.5722    4.2242 O   0  0  0  0  0  0  0  0  0  0  0  0
  -88.8077   25.1595    4.0052 O   0  0  0  0  0  0  0  0  0  0  0  0
  -91.7044   23.5400    1.9664 C   0  0  0  0  0  0  0  0  0  0  0  0
  -90.4615   23.6641    2.6433 N   0  0  0  0  0  0  0  0  0  0  0  0
  -90.3097   22.6784    3.6651 C   0  0  0  0  0  0  0  0  0  0  0  0
  -87.6350   33.1422   -2.3599 C   0  0  0  0  0  0  0  0  0  0  0  0
  -86.3716   33.4702   -2.7472 C   0  0  0  0  0  0  0  0  0  0  0  0
  -86.4571   34.5875   -3.4758 N   0  0  0  0  0  0  0  0  0  0  0  0
  -87.7286   35.0000   -3.5784 C   0  0  0  0  0  0  0  0  0  0  0  0
  -88.4424   34.0844   -2.8758 N   0  0  0  0  0  0  0  0  0  0  0  0
  -85.6343   35.0658   -3.9036 H   0  0  0  0  0  0  0  0  0  0  0  0
  -88.3138   36.1760   -4.2699 C   0  0  0  0  0  0  0  0  0  0  0  0
  -88.2859   37.3895   -3.3484 C   0  0  0  0  0  0  0  0  0  0  0  0
  -87.3691   36.4941   -5.4133 C   0  0  0  0  0  0  0  0  0  0  0  0
  -89.6632   36.0051   -4.6975 N   0  0  0  0  0  0  0  0  0  0  0  0
  -90.4401   37.0756   -4.0489 C   0  0  0  0  0  0  0  0  0  0  0  0
  -91.8824   36.6156   -4.0321 C   0  0  0  0  0  0  0  0  0  0  0  0
  -92.1449   35.9953   -5.2336 O   0  0  0  0  0  0  0  0  0  0  0  0
  -91.3754   36.5058   -6.2788 C   0  0  0  0  0  0  0  0  0  0  0  0
  -89.8963   36.1339   -6.1054 C   0  0  0  0  0  0  0  0  0  0  0  0
 16 17  1  0  0  0
 17 18  1  0  0  0
 17 13  1  0  0  0
 13 14  2  0  0  0
 13 15  2  0  0  0
 13  7  1  0  0  0
  7  8  1  0  0  0
  8  9  1  0  0  0
  9 10  1  0  0  0
 10 11  1  0  0  0
 11 12  1  0  0  0
 10  1  1  0  0  0
  1  2  2  0  0  0
  2  3  1  0  0  0
  3  4  2  0  0  0
  4  5  1  0  0  0
  5  6  2  0  0  0
  4 19  1  0  0  0
 19 20  2  0  0  0
 20 21  1  0  0  0
 21 22  1  0  0  0
 22 23  2  0  0  0
 22 25  1  0  0  0
 25 26  1  0  0  0
 25 27  1  0  0  0
 25 28  1  0  0  0
 28 29  1  0  0  0
 29 30  1  0  0  0
 30 31  1  0  0  0
 31 32  1  0  0  0
 32 33  1  0  0  0
 12  7  1  0  0  0
  6  1  1  0  0  0
 23 19  1  0  0  0
 33 28  1  0  0  0
 21 24  1  0  0  0
M  END
> <minimizedAffinity>
-7.59029

> <CNNscore>
0.1645918638

> <CNNaffinity>
5.9160857201

> <CNN_VS>
0.9737395644

> <CNNaffinity_variance>
0.1770154536

$$$$
[H]c1c([H])c(C2([H])C([H])([H])C([H])([H])N(S(=O)(=O)N(C([H])([H])[H])C([H])([H])[H])C([H])([H])C2([H])[H])c([H])c([H])c1-c1nc(C(N2C([H])([H])C([H])([H])OC([H])([H])C2([H])[H])(C([H])([H])[H])C([H])([H])[H])n([H])c1[H]


 33 36  0  0  0  0  0  0  0  0999 V2000
  -88.8240   29.6728    0.0816 C   0  0  0  0  0  0  0  0  0  0  0  0
  -89.7886   30.5486   -0.4334 C   0  0  0  0  0  0  0  0  0  0  0  0
  -89.4116   31.5788   -1.2494 C   0  0  0  0  0  0  0  0  0  0  0  0
  -88.0990   31.8116   -1.6050 C   0  0  0  0  0  0  0  0  0  0  0  0
  -87.1478   30.9714   -1.1153 C   0  0  0  0  0  0  0  0  0  0  0  0
  -87.5155   29.9111   -0.2780 C   0  0  0  0  0  0  0  0  0  0  0  0
  -89.9594   26.4264    2.3439 N   0  0  0  0  0  0  0  0  0  0  0  0
  -88.6535   26.3200    1.8479 C   0  0  0  0  0  0  0  0  0  0  0  0
  -88.1220   27.5843    1.2213 C   0  0  0  0  0  0  0  0  0  0  0  0
  -89.2418   28.5797    0.9566 C   0  0  0  0  0  0  0  0  0  0  0  0
  -90.4881   27.9001    0.4711 C   0  0  0  0  0  0  0  0  0  0  0  0
  -90.9890   26.9129    1.5137 C   0  0  0  0  0  0  0  0  0  0  0  0
  -90.4305   25.5758    3.7001 S   0  0  0  0  0  0  0  0  0  0  0  0
  -91.3793   24.4514    3.2786 O   0  0  0  0  0  0  0  0  0  0  0  0
  -91.1772   26.4133    4.7153 O   0  0  0  0  0  0  0  0  0  0  0  0
  -89.1634   23.3792    4.4800 C   0  0  0  0  0  0  0  0  0  0  0  0
  -89.1328   24.7992    4.5121 N   0  0  0  0  0  0  0  0  0  0  0  0
  -88.9620   25.2994    5.8385 C   0  0  0  0  0  0  0  0  0  0  0  0
  -87.7652   32.9499   -2.4788 C   0  0  0  0  0  0  0  0  0  0  0  0
  -86.5494   33.3345   -2.9558 C   0  0  0  0  0  0  0  0  0  0  0  0
  -86.7432   34.4258   -3.7030 N   0  0  0  0  0  0  0  0  0  0  0  0
  -88.0394   34.7667   -3.7313 C   0  0  0  0  0  0  0  0  0  0  0  0
  -88.6549   33.8333   -2.9623 N   0  0  0  0  0  0  0  0  0  0  0  0
  -85.9772   34.9359   -4.1949 H   0  0  0  0  0  0  0  0  0  0  0  0
  -88.7320   35.8907   -4.4100 C   0  0  0  0  0  0  0  0  0  0  0  0
  -89.9692   36.2951   -3.6173 C   0  0  0  0  0  0  0  0  0  0  0  0
  -87.7794   37.0687   -4.3329 C   0  0  0  0  0  0  0  0  0  0  0  0
  -89.1597   35.6105   -5.7409 N   0  0  0  0  0  0  0  0  0  0  0  0
  -90.5884   35.2631   -5.6505 C   0  0  0  0  0  0  0  0  0  0  0  0
  -90.9192   34.4610   -6.8912 C   0  0  0  0  0  0  0  0  0  0  0  0
  -90.2582   35.0328   -7.9559 O   0  0  0  0  0  0  0  0  0  0  0  0
  -90.0714   36.4055   -7.7951 C   0  0  0  0  0  0  0  0  0  0  0  0
  -89.0667   36.6960   -6.6716 C   0  0  0  0  0  0  0  0  0  0  0  0
 16 17  1  0  0  0
 17 18  1  0  0  0
 17 13  1  0  0  0
 13 14  2  0  0  0
 13 15  2  0  0  0
 13  7  1  0  0  0
  7  8  1  0  0  0
  8  9  1  0  0  0
  9 10  1  0  0  0
 10 11  1  0  0  0
 11 12  1  0  0  0
 10  1  1  0  0  0
  1  2  2  0  0  0
  2  3  1  0  0  0
  3  4  2  0  0  0
  4  5  1  0  0  0
  5  6  2  0  0  0
  4 19  1  0  0  0
 19 20  2  0  0  0
 20 21  1  0  0  0
 21 22  1  0  0  0
 22 23  2  0  0  0
 22 25  1  0  0  0
 25 26  1  0  0  0
 25 27  1  0  0  0
 25 28  1  0  0  0
 28 29  1  0  0  0
 29 30  1  0  0  0
 30 31  1  0  0  0
 31 32  1  0  0  0
 32 33  1  0  0  0
 12  7  1  0  0  0
  6  1  1  0  0  0
 23 19  1  0  0  0
 33 28  1  0  0  0
 21 24  1  0  0  0
M  END
> <minimizedAffinity>
-7.00555

> <CNNscore>
0.1462816149

> <CNNaffinity>
6.0065512657

> <CNN_VS>
0.8786480427

> <CNNaffinity_variance>
0.0930312425

$$$$
[H]c1c([H])c(C2([H])C([H])([H])C([H])([H])N(S(=O)(=O)N(C([H])([H])[H])C([H])([H])[H])C([H])([H])C2([H])[H])c([H])c([H])c1-c1nc(C(N2C([H])([H])C([H])([H])OC([H])([H])C2([H])[H])(C([H])([H])[H])C([H])([H])[H])n([H])c1[H]


 33 36  0  0  0  0  0  0  0  0999 V2000
  -88.7566   31.7488   -3.3240 C   0  0  0  0  0  0  0  0  0  0  0  0
  -87.6189   31.0741   -2.8624 C   0  0  0  0  0  0  0  0  0  0  0  0
  -87.7142   29.7740   -2.4503 C   0  0  0  0  0  0  0  0  0  0  0  0
  -88.8998   29.0685   -2.4638 C   0  0  0  0  0  0  0  0  0  0  0  0
  -90.0156   29.7065   -2.9094 C   0  0  0  0  0  0  0  0  0  0  0  0
  -89.9367   31.0380   -3.3351 C   0  0  0  0  0  0  0  0  0  0  0  0
  -88.3413   35.7273   -4.2967 N   0  0  0  0  0  0  0  0  0  0  0  0
  -87.1438   35.1387   -3.8694 C   0  0  0  0  0  0  0  0  0  0  0  0
  -87.2024   33.6381   -3.7350 C   0  0  0  0  0  0  0  0  0  0  0  0
  -88.6398   33.1398   -3.7560 C   0  0  0  0  0  0  0  0  0  0  0  0
  -89.5577   34.0546   -3.0001 C   0  0  0  0  0  0  0  0  0  0  0  0
  -89.5445   35.4430   -3.6203 C   0  0  0  0  0  0  0  0  0  0  0  0
  -88.3279   37.0902   -5.2593 S   0  0  0  0  0  0  0  0  0  0  0  0
  -87.0337   37.1108   -6.0761 O   0  0  0  0  0  0  0  0  0  0  0  0
  -88.3676   38.3866   -4.4799 O   0  0  0  0  0  0  0  0  0  0  0  0
  -89.6715   36.0021   -7.2716 C   0  0  0  0  0  0  0  0  0  0  0  0
  -89.5980   37.1318   -6.4133 N   0  0  0  0  0  0  0  0  0  0  0  0
  -89.6110   38.3586   -7.1436 C   0  0  0  0  0  0  0  0  0  0  0  0
  -88.9299   27.6729   -1.9925 C   0  0  0  0  0  0  0  0  0  0  0  0
  -87.9452   26.9526   -1.3881 C   0  0  0  0  0  0  0  0  0  0  0  0
  -88.4356   25.7324   -1.1489 N   0  0  0  0  0  0  0  0  0  0  0  0
  -89.7029   25.6303   -1.5742 C   0  0  0  0  0  0  0  0  0  0  0  0
  -89.9876   26.8505   -2.0952 N   0  0  0  0  0  0  0  0  0  0  0  0
  -87.8929   24.9684   -0.6900 H   0  0  0  0  0  0  0  0  0  0  0  0
  -90.6498   24.4877   -1.5355 C   0  0  0  0  0  0  0  0  0  0  0  0
  -91.8016   24.7325   -2.5029 C   0  0  0  0  0  0  0  0  0  0  0  0
  -89.8842   23.2990   -2.0851 C   0  0  0  0  0  0  0  0  0  0  0  0
  -91.2240   24.2328   -0.2556 N   0  0  0  0  0  0  0  0  0  0  0  0
  -92.1615   23.1115   -0.4400 C   0  0  0  0  0  0  0  0  0  0  0  0
  -93.1474   23.1772    0.7071 C   0  0  0  0  0  0  0  0  0  0  0  0
  -92.4513   23.5129    1.8473 O   0  0  0  0  0  0  0  0  0  0  0  0
  -91.1310   23.0640    1.8200 C   0  0  0  0  0  0  0  0  0  0  0  0
  -90.3111   23.8303    0.7728 C   0  0  0  0  0  0  0  0  0  0  0  0
 16 17  1  0  0  0
 17 18  1  0  0  0
 17 13  1  0  0  0
 13 14  2  0  0  0
 13 15  2  0  0  0
 13  7  1  0  0  0
  7  8  1  0  0  0
  8  9  1  0  0  0
  9 10  1  0  0  0
 10 11  1  0  0  0
 11 12  1  0  0  0
 10  1  1  0  0  0
  1  2  2  0  0  0
  2  3  1  0  0  0
  3  4  2  0  0  0
  4  5  1  0  0  0
  5  6  2  0  0  0
  4 19  1  0  0  0
 19 20  2  0  0  0
 20 21  1  0  0  0
 21 22  1  0  0  0
 22 23  2  0  0  0
 22 25  1  0  0  0
 25 26  1  0  0  0
 25 27  1  0  0  0
 25 28  1  0  0  0
 28 29  1  0  0  0
 29 30  1  0  0  0
 30 31  1  0  0  0
 31 32  1  0  0  0
 32 33  1  0  0  0
 12  7  1  0  0  0
  6  1  1  0  0  0
 23 19  1  0  0  0
 33 28  1  0  0  0
 21 24  1  0  0  0
M  END
> <minimizedAffinity>
-6.66631

> <CNNscore>
0.1229039803

> <CNNaffinity>
5.6944184303

> <CNN_VS>
0.6998667121

> <CNNaffinity_variance>
0.1243667006

$$$$
[H]c1c([H])c(C2([H])C([H])([H])C([H])([H])N(S(=O)(=O)N(C([H])([H])[H])C([H])([H])[H])C([H])([H])C2([H])[H])c([H])c([H])c1-c1nc(C(N2C([H])([H])C([H])([H])OC([H])([H])C2([H])[H])(C([H])([H])[H])C([H])([H])[H])n([H])c1[H]


 33 36  0  0  0  0  0  0  0  0999 V2000
  -88.4516   32.9246   -3.5223 C   0  0  0  0  0  0  0  0  0  0  0  0
  -88.7794   32.5730   -2.2063 C   0  0  0  0  0  0  0  0  0  0  0  0
  -88.7121   31.2663   -1.8099 C   0  0  0  0  0  0  0  0  0  0  0  0
  -88.3288   30.2454   -2.6551 C   0  0  0  0  0  0  0  0  0  0  0  0
  -88.0060   30.5671   -3.9369 C   0  0  0  0  0  0  0  0  0  0  0  0
  -88.0693   31.9001   -4.3605 C   0  0  0  0  0  0  0  0  0  0  0  0
  -88.7643   36.9273   -4.4317 N   0  0  0  0  0  0  0  0  0  0  0  0
  -87.8802   36.6718   -3.3753 C   0  0  0  0  0  0  0  0  0  0  0  0
  -87.5590   35.2126   -3.1730 C   0  0  0  0  0  0  0  0  0  0  0  0
  -88.5335   34.3246   -3.9324 C   0  0  0  0  0  0  0  0  0  0  0  0
  -89.9344   34.8584   -3.8754 C   0  0  0  0  0  0  0  0  0  0  0  0
  -89.9951   36.2441   -4.4989 C   0  0  0  0  0  0  0  0  0  0  0  0
  -88.6318   38.3215   -5.3390 S   0  0  0  0  0  0  0  0  0  0  0  0
  -87.5576   39.2188   -4.7198 O   0  0  0  0  0  0  0  0  0  0  0  0
  -89.9035   39.1400   -5.3868 O   0  0  0  0  0  0  0  0  0  0  0  0
  -89.1660   38.0074   -7.9186 C   0  0  0  0  0  0  0  0  0  0  0  0
  -88.1227   38.0466   -6.9551 N   0  0  0  0  0  0  0  0  0  0  0  0
  -87.2620   36.9117   -7.0541 C   0  0  0  0  0  0  0  0  0  0  0  0
  -88.2917   28.8577   -2.1617 C   0  0  0  0  0  0  0  0  0  0  0  0
  -87.2114   28.0767   -1.8849 C   0  0  0  0  0  0  0  0  0  0  0  0
  -87.6731   26.8933   -1.4688 N   0  0  0  0  0  0  0  0  0  0  0  0
  -89.0136   26.8737   -1.4635 C   0  0  0  0  0  0  0  0  0  0  0  0
  -89.3749   28.1073   -1.8986 N   0  0  0  0  0  0  0  0  0  0  0  0
  -87.0598   26.0974   -1.1874 H   0  0  0  0  0  0  0  0  0  0  0  0
  -89.9663   25.7972   -1.0933 C   0  0  0  0  0  0  0  0  0  0  0  0
  -89.6099   24.5106   -1.8285 C   0  0  0  0  0  0  0  0  0  0  0  0
  -89.7249   25.5213    0.3786 C   0  0  0  0  0  0  0  0  0  0  0  0
  -91.3320   26.0833   -1.3866 N   0  0  0  0  0  0  0  0  0  0  0  0
  -91.6127   25.4606   -2.6918 C   0  0  0  0  0  0  0  0  0  0  0  0
  -92.8169   26.1777   -3.2644 C   0  0  0  0  0  0  0  0  0  0  0  0
  -93.7025   26.4100   -2.2353 O   0  0  0  0  0  0  0  0  0  0  0  0
  -93.6233   25.4438   -1.2326 C   0  0  0  0  0  0  0  0  0  0  0  0
  -92.2956   25.5503   -0.4698 C   0  0  0  0  0  0  0  0  0  0  0  0
 16 17  1  0  0  0
 17 18  1  0  0  0
 17 13  1  0  0  0
 13 14  2  0  0  0
 13 15  2  0  0  0
 13  7  1  0  0  0
  7  8  1  0  0  0
  8  9  1  0  0  0
  9 10  1  0  0  0
 10 11  1  0  0  0
 11 12  1  0  0  0
 10  1  1  0  0  0
  1  2  2  0  0  0
  2  3  1  0  0  0
  3  4  2  0  0  0
  4  5  1  0  0  0
  5  6  2  0  0  0
  4 19  1  0  0  0
 19 20  2  0  0  0
 20 21  1  0  0  0
 21 22  1  0  0  0
 22 23  2  0  0  0
 22 25  1  0  0  0
 25 26  1  0  0  0
 25 27  1  0  0  0
 25 28  1  0  0  0
 28 29  1  0  0  0
 29 30  1  0  0  0
 30 31  1  0  0  0
 31 32  1  0  0  0
 32 33  1  0  0  0
 12  7  1  0  0  0
  6  1  1  0  0  0
 23 19  1  0  0  0
 33 28  1  0  0  0
 21 24  1  0  0  0
M  END
> <minimizedAffinity>
-6.73588

> <CNNscore>
0.1225188896

> <CNNaffinity>
5.5116553307

> <CNN_VS>
0.6752818823

> <CNNaffinity_variance>
0.3249010444

$$$$
[H]c1c([H])c(C2([H])C([H])([H])C([H])([H])N(S(=O)(=O)N(C([H])([H])[H])C([H])([H])[H])C([H])([H])C2([H])[H])c([H])c([H])c1-c1nc(C(N2C([H])([H])C([H])([H])OC([H])([H])C2([H])[H])(C([H])([H])[H])C([H])([H])[H])n([H])c1[H]


 33 36  0  0  0  0  0  0  0  0999 V2000
  -89.3499   28.5829    0.2336 C   0  0  0  0  0  0  0  0  0  0  0  0
  -88.0140   28.7811   -0.1390 C   0  0  0  0  0  0  0  0  0  0  0  0
  -87.6198   29.9819   -0.6605 C   0  0  0  0  0  0  0  0  0  0  0  0
  -88.4864   31.0394   -0.8457 C   0  0  0  0  0  0  0  0  0  0  0  0
  -89.7878   30.8663   -0.4893 C   0  0  0  0  0  0  0  0  0  0  0  0
  -90.2094   29.6432    0.0462 C   0  0  0  0  0  0  0  0  0  0  0  0
  -90.2427   24.9038    1.8503 N   0  0  0  0  0  0  0  0  0  0  0  0
  -89.6502   25.7786    2.7704 C   0  0  0  0  0  0  0  0  0  0  0  0
  -89.5295   27.2013    2.2861 C   0  0  0  0  0  0  0  0  0  0  0  0
  -89.7571   27.2922    0.7845 C   0  0  0  0  0  0  0  0  0  0  0  0
  -89.1377   26.1361    0.0561 C   0  0  0  0  0  0  0  0  0  0  0  0
  -89.7461   24.8268    0.5337 C   0  0  0  0  0  0  0  0  0  0  0  0
  -91.1900   23.6315    2.3685 S   0  0  0  0  0  0  0  0  0  0  0  0
  -92.5232   23.6646    1.6176 O   0  0  0  0  0  0  0  0  0  0  0  0
  -91.5236   23.6821    3.8435 O   0  0  0  0  0  0  0  0  0  0  0  0
  -91.2663   21.2817    1.1392 C   0  0  0  0  0  0  0  0  0  0  0  0
  -90.5151   22.0889    2.0350 N   0  0  0  0  0  0  0  0  0  0  0  0
  -90.1793   21.3869    3.2321 C   0  0  0  0  0  0  0  0  0  0  0  0
  -87.9931   32.3008   -1.4254 C   0  0  0  0  0  0  0  0  0  0  0  0
  -86.8773   33.0116   -1.1038 C   0  0  0  0  0  0  0  0  0  0  0  0
  -86.8501   34.0879   -1.8960 N   0  0  0  0  0  0  0  0  0  0  0  0
  -87.9059   34.1052   -2.7221 C   0  0  0  0  0  0  0  0  0  0  0  0
  -88.6021   32.9830   -2.4100 N   0  0  0  0  0  0  0  0  0  0  0  0
  -86.0994   34.8121   -1.8657 H   0  0  0  0  0  0  0  0  0  0  0  0
  -88.3078   35.0857   -3.7616 C   0  0  0  0  0  0  0  0  0  0  0  0
  -88.1255   34.4794   -5.1479 C   0  0  0  0  0  0  0  0  0  0  0  0
  -89.8007   35.2869   -3.5834 C   0  0  0  0  0  0  0  0  0  0  0  0
  -87.5775   36.3101   -3.7400 N   0  0  0  0  0  0  0  0  0  0  0  0
  -87.2923   36.6451   -5.1460 C   0  0  0  0  0  0  0  0  0  0  0  0
  -86.1052   37.5847   -5.1358 C   0  0  0  0  0  0  0  0  0  0  0  0
  -86.2602   38.4540   -4.0786 O   0  0  0  0  0  0  0  0  0  0  0  0
  -87.6001   38.6936   -3.7746 C   0  0  0  0  0  0  0  0  0  0  0  0
  -88.2635   37.4402   -3.1873 C   0  0  0  0  0  0  0  0  0  0  0  0
 16 17  1  0  0  0
 17 18  1  0  0  0
 17 13  1  0  0  0
 13 14  2  0  0  0
 13 15  2  0  0  0
 13  7  1  0  0  0
  7  8  1  0  0  0
  8  9  1  0  0  0
  9 10  1  0  0  0
 10 11  1  0  0  0
 11 12  1  0  0  0
 10  1  1  0  0  0
  1  2  2  0  0  0
  2  3  1  0  0  0
  3  4  2  0  0  0
  4  5  1  0  0  0
  5  6  2  0  0  0
  4 19  1  0  0  0
 19 20  2  0  0  0
 20 21  1  0  0  0
 21 22  1  0  0  0
 22 23  2  0  0  0
 22 25  1  0  0  0
 25 26  1  0  0  0
 25 27  1  0  0  0
 25 28  1  0  0  0
 28 29  1  0  0  0
 29 30  1  0  0  0
 30 31  1  0  0  0
 31 32  1  0  0  0
 32 33  1  0  0  0
 12  7  1  0  0  0
  6  1  1  0  0  0
 23 19  1  0  0  0
 33 28  1  0  0  0
 21 24  1  0  0  0
M  END
> <minimizedAffinity>
-8.02466

> <CNNscore>
0.1221709251

> <CNNaffinity>
5.9597883224

> <CNN_VS>
0.7281128764

> <CNNaffinity_variance>
0.1854348779

$$$$
[H]c1c([H])c(C2([H])C([H])([H])C([H])([H])N(S(=O)(=O)N(C([H])([H])[H])C([H])([H])[H])C([H])([H])C2([H])[H])c([H])c([H])c1-c1nc(C(N2C([H])([H])C([H])([H])OC([H])([H])C2([H])[H])(C([H])([H])[H])C([H])([H])[H])n([H])c1[H]


 33 36  0  0  0  0  0  0  0  0999 V2000
  -89.0415   29.2107   -0.9189 C   0  0  0  0  0  0  0  0  0  0  0  0
  -88.3574   29.2342   -2.1412 C   0  0  0  0  0  0  0  0  0  0  0  0
  -87.9123   30.4209   -2.6538 C   0  0  0  0  0  0  0  0  0  0  0  0
  -88.1033   31.6305   -2.0184 C   0  0  0  0  0  0  0  0  0  0  0  0
  -88.7651   31.6282   -0.8299 C   0  0  0  0  0  0  0  0  0  0  0  0
  -89.2282   30.4222   -0.2899 C   0  0  0  0  0  0  0  0  0  0  0  0
  -90.5331   25.7546    0.7475 N   0  0  0  0  0  0  0  0  0  0  0  0
  -91.5273   26.5674    0.1873 C   0  0  0  0  0  0  0  0  0  0  0  0
  -91.0004   27.7151   -0.6364 C   0  0  0  0  0  0  0  0  0  0  0  0
  -89.5158   27.9353   -0.3865 C   0  0  0  0  0  0  0  0  0  0  0  0
  -89.1605   27.7490    1.0591 C   0  0  0  0  0  0  0  0  0  0  0  0
  -89.4957   26.3343    1.5050 C   0  0  0  0  0  0  0  0  0  0  0  0
  -90.7807   24.1166    0.9478 S   0  0  0  0  0  0  0  0  0  0  0  0
  -92.2391   23.7890    0.6190 O   0  0  0  0  0  0  0  0  0  0  0  0
  -90.5370   23.6322    2.3605 O   0  0  0  0  0  0  0  0  0  0  0  0
  -90.1044   23.3308   -1.4943 C   0  0  0  0  0  0  0  0  0  0  0  0
  -89.8432   23.1431   -0.1105 N   0  0  0  0  0  0  0  0  0  0  0  0
  -89.8871   21.7645    0.2586 C   0  0  0  0  0  0  0  0  0  0  0  0
  -87.6067   32.8720   -2.6370 C   0  0  0  0  0  0  0  0  0  0  0  0
  -86.3230   33.3028   -2.7798 C   0  0  0  0  0  0  0  0  0  0  0  0
  -86.3680   34.4870   -3.3980 N   0  0  0  0  0  0  0  0  0  0  0  0
  -87.6326   34.8442   -3.6639 C   0  0  0  0  0  0  0  0  0  0  0  0
  -88.3846   33.8232   -3.1809 N   0  0  0  0  0  0  0  0  0  0  0  0
  -85.5223   35.0495   -3.6371 H   0  0  0  0  0  0  0  0  0  0  0  0
  -88.1797   36.0577   -4.3210 C   0  0  0  0  0  0  0  0  0  0  0  0
  -89.5980   35.7904   -4.8106 C   0  0  0  0  0  0  0  0  0  0  0  0
  -88.3022   37.0999   -3.2257 C   0  0  0  0  0  0  0  0  0  0  0  0
  -87.4288   36.5181   -5.4422 N   0  0  0  0  0  0  0  0  0  0  0  0
  -88.3755   37.2528   -6.2990 C   0  0  0  0  0  0  0  0  0  0  0  0
  -87.7768   37.2726   -7.6894 C   0  0  0  0  0  0  0  0  0  0  0  0
  -86.4204   37.4781   -7.5654 O   0  0  0  0  0  0  0  0  0  0  0  0
  -86.0937   38.2257   -6.4342 C   0  0  0  0  0  0  0  0  0  0  0  0
  -86.3597   37.4266   -5.1510 C   0  0  0  0  0  0  0  0  0  0  0  0
 16 17  1  0  0  0
 17 18  1  0  0  0
 17 13  1  0  0  0
 13 14  2  0  0  0
 13 15  2  0  0  0
 13  7  1  0  0  0
  7  8  1  0  0  0
  8  9  1  0  0  0
  9 10  1  0  0  0
 10 11  1  0  0  0
 11 12  1  0  0  0
 10  1  1  0  0  0
  1  2  2  0  0  0
  2  3  1  0  0  0
  3  4  2  0  0  0
  4  5  1  0  0  0
  5  6  2  0  0  0
  4 19  1  0  0  0
 19 20  2  0  0  0
 20 21  1  0  0  0
 21 22  1  0  0  0
 22 23  2  0  0  0
 22 25  1  0  0  0
 25 26  1  0  0  0
 25 27  1  0  0  0
 25 28  1  0  0  0
 28 29  1  0  0  0
 29 30  1  0  0  0
 30 31  1  0  0  0
 31 32  1  0  0  0
 32 33  1  0  0  0
 12  7  1  0  0  0
  6  1  1  0  0  0
 23 19  1  0  0  0
 33 28  1  0  0  0
 21 24  1  0  0  0
M  END
> <minimizedAffinity>
-7.51794

> <CNNscore>
0.1101673543

> <CNNaffinity>
5.7102599144

> <CNN_VS>
0.6290842295

> <CNNaffinity_variance>
0.1949790567

$$$$
[H]c1c([H])c(C2([H])C([H])([H])C([H])([H])N(S(=O)(=O)N(C([H])([H])[H])C([H])([H])[H])C([H])([H])C2([H])[H])c([H])c([H])c1-c1nc(C(N2C([H])([H])C([H])([H])OC([H])([H])C2([H])[H])(C([H])([H])[H])C([H])([H])[H])n([H])c1[H]


 33 36  0  0  0  0  0  0  0  0999 V2000
  -87.5442   33.1917   -3.5221 C   0  0  0  0  0  0  0  0  0  0  0  0
  -87.4044   32.9343   -2.1521 C   0  0  0  0  0  0  0  0  0  0  0  0
  -87.5172   31.6558   -1.6809 C   0  0  0  0  0  0  0  0  0  0  0  0
  -87.7674   30.5744   -2.5002 C   0  0  0  0  0  0  0  0  0  0  0  0
  -87.9057   30.8042   -3.8339 C   0  0  0  0  0  0  0  0  0  0  0  0
  -87.7935   32.1071   -4.3342 C   0  0  0  0  0  0  0  0  0  0  0  0
  -87.4767   37.0779   -4.8784 N   0  0  0  0  0  0  0  0  0  0  0  0
  -88.0536   36.9498   -3.6081 C   0  0  0  0  0  0  0  0  0  0  0  0
  -87.8806   35.5893   -2.9815 C   0  0  0  0  0  0  0  0  0  0  0  0
  -87.4263   34.5641   -4.0098 C   0  0  0  0  0  0  0  0  0  0  0  0
  -88.1051   34.7633   -5.3328 C   0  0  0  0  0  0  0  0  0  0  0  0
  -87.7829   36.1424   -5.8869 C   0  0  0  0  0  0  0  0  0  0  0  0
  -86.8234   38.5299   -5.3779 S   0  0  0  0  0  0  0  0  0  0  0  0
  -86.7621   39.4858   -4.1843 O   0  0  0  0  0  0  0  0  0  0  0  0
  -87.6351   39.2267   -6.4481 O   0  0  0  0  0  0  0  0  0  0  0  0
  -84.2059   38.7189   -4.9890 C   0  0  0  0  0  0  0  0  0  0  0  0
  -85.2082   38.4007   -5.9443 N   0  0  0  0  0  0  0  0  0  0  0  0
  -85.0185   39.1054   -7.1715 C   0  0  0  0  0  0  0  0  0  0  0  0
  -87.8890   29.2255   -1.9202 C   0  0  0  0  0  0  0  0  0  0  0  0
  -87.8656   28.0183   -2.5493 C   0  0  0  0  0  0  0  0  0  0  0  0
  -88.0167   27.0785   -1.6109 N   0  0  0  0  0  0  0  0  0  0  0  0
  -88.1374   27.6276   -0.3938 C   0  0  0  0  0  0  0  0  0  0  0  0
  -88.0548   28.9643   -0.6125 N   0  0  0  0  0  0  0  0  0  0  0  0
  -88.0360   26.0549   -1.8125 H   0  0  0  0  0  0  0  0  0  0  0  0
  -88.3291   27.0009    0.9381 C   0  0  0  0  0  0  0  0  0  0  0  0
  -88.9197   25.6052    0.7771 C   0  0  0  0  0  0  0  0  0  0  0  0
  -86.9362   26.8054    1.5061 C   0  0  0  0  0  0  0  0  0  0  0  0
  -89.1897   27.7215    1.8174 N   0  0  0  0  0  0  0  0  0  0  0  0
  -90.5424   27.6240    1.2421 C   0  0  0  0  0  0  0  0  0  0  0  0
  -91.3395   28.7792    1.8099 C   0  0  0  0  0  0  0  0  0  0  0  0
  -90.9977   28.9200    3.1368 O   0  0  0  0  0  0  0  0  0  0  0  0
  -90.6211   27.7121    3.7236 C   0  0  0  0  0  0  0  0  0  0  0  0
  -89.2833   27.2183    3.1557 C   0  0  0  0  0  0  0  0  0  0  0  0
 16 17  1  0  0  0
 17 18  1  0  0  0
 17 13  1  0  0  0
 13 14  2  0  0  0
 13 15  2  0  0  0
 13  7  1  0  0  0
  7  8  1  0  0  0
  8  9  1  0  0  0
  9 10  1  0  0  0
 10 11  1  0  0  0
 11 12  1  0  0  0
 10  1  1  0  0  0
  1  2  2  0  0  0
  2  3  1  0  0  0
  3  4  2  0  0  0
  4  5  1  0  0  0
  5  6  2  0  0  0
  4 19  1  0  0  0
 19 20  2  0  0  0
 20 21  1  0  0  0
 21 22  1  0  0  0
 22 23  2  0  0  0
 22 25  1  0  0  0
 25 26  1  0  0  0
 25 27  1  0  0  0
 25 28  1  0  0  0
 28 29  1  0  0  0
 29 30  1  0  0  0
 30 31  1  0  0  0
 31 32  1  0  0  0
 32 33  1  0  0  0
 12  7  1  0  0  0
  6  1  1  0  0  0
 23 19  1  0  0  0
 33 28  1  0  0  0
 21 24  1  0  0  0
M  END
> <minimizedAffinity>
-7.97619

> <CNNscore>
0.1095602140

> <CNNaffinity>
5.7026081085

> <CNN_VS>
0.6247789860

> <CNNaffinity_variance>
0.4641250670

$$$$
[H]c1c([H])c(C2([H])C([H])([H])C([H])([H])N(S(=O)(=O)N(C([H])([H])[H])C([H])([H])[H])C([H])([H])C2([H])[H])c([H])c([H])c1-c1nc(C(N2C([H])([H])C([H])([H])OC([H])([H])C2([H])[H])(C([H])([H])[H])C([H])([H])[H])n([H])c1[H]


 33 36  0  0  0  0  0  0  0  0999 V2000
  -88.4747   29.2427    0.2044 C   0  0  0  0  0  0  0  0  0  0  0  0
  -89.4401   29.9497   -0.5242 C   0  0  0  0  0  0  0  0  0  0  0  0
  -89.0721   31.0245   -1.2849 C   0  0  0  0  0  0  0  0  0  0  0  0
  -87.7680   31.4649   -1.3789 C   0  0  0  0  0  0  0  0  0  0  0  0
  -86.8161   30.7908   -0.6789 C   0  0  0  0  0  0  0  0  0  0  0  0
  -87.1747   29.6878    0.1054 C   0  0  0  0  0  0  0  0  0  0  0  0
  -89.6214   26.1813    2.7063 N   0  0  0  0  0  0  0  0  0  0  0  0
  -90.5031   27.2698    2.7309 C   0  0  0  0  0  0  0  0  0  0  0  0
  -90.2488   28.2997    1.6595 C   0  0  0  0  0  0  0  0  0  0  0  0
  -88.8843   28.0994    1.0170 C   0  0  0  0  0  0  0  0  0  0  0  0
  -87.8447   27.7110    2.0266 C   0  0  0  0  0  0  0  0  0  0  0  0
  -88.2299   26.4040    2.7019 C   0  0  0  0  0  0  0  0  0  0  0  0
  -90.1338   24.6561    3.1491 S   0  0  0  0  0  0  0  0  0  0  0  0
  -91.5080   24.7655    3.8139 O   0  0  0  0  0  0  0  0  0  0  0  0
  -89.2239   23.9740    4.1473 O   0  0  0  0  0  0  0  0  0  0  0  0
  -90.3136   24.2033    0.5412 C   0  0  0  0  0  0  0  0  0  0  0  0
  -90.3511   23.5895    1.8219 N   0  0  0  0  0  0  0  0  0  0  0  0
  -91.5069   22.7674    1.9859 C   0  0  0  0  0  0  0  0  0  0  0  0
  -87.4470   32.6392   -2.2087 C   0  0  0  0  0  0  0  0  0  0  0  0
  -86.2424   33.2408   -2.4105 C   0  0  0  0  0  0  0  0  0  0  0  0
  -86.4466   34.2713   -3.2368 N   0  0  0  0  0  0  0  0  0  0  0  0
  -87.7388   34.3640   -3.5816 C   0  0  0  0  0  0  0  0  0  0  0  0
  -88.3408   33.3375   -2.9293 N   0  0  0  0  0  0  0  0  0  0  0  0
  -85.6905   34.9120   -3.5636 H   0  0  0  0  0  0  0  0  0  0  0  0
  -88.4414   35.3340   -4.4586 C   0  0  0  0  0  0  0  0  0  0  0  0
  -89.0216   36.4678   -3.6216 C   0  0  0  0  0  0  0  0  0  0  0  0
  -87.3658   35.9595   -5.3263 C   0  0  0  0  0  0  0  0  0  0  0  0
  -89.5143   34.7820   -5.2183 N   0  0  0  0  0  0  0  0  0  0  0  0
  -90.7536   35.1634   -4.5191 C   0  0  0  0  0  0  0  0  0  0  0  0
  -91.8186   34.1802   -4.9565 C   0  0  0  0  0  0  0  0  0  0  0  0
  -91.6512   33.9432   -6.3030 O   0  0  0  0  0  0  0  0  0  0  0  0
  -91.1053   35.0366   -6.9751 C   0  0  0  0  0  0  0  0  0  0  0  0
  -89.6446   35.2632   -6.5616 C   0  0  0  0  0  0  0  0  0  0  0  0
 16 17  1  0  0  0
 17 18  1  0  0  0
 17 13  1  0  0  0
 13 14  2  0  0  0
 13 15  2  0  0  0
 13  7  1  0  0  0
  7  8  1  0  0  0
  8  9  1  0  0  0
  9 10  1  0  0  0
 10 11  1  0  0  0
 11 12  1  0  0  0
 10  1  1  0  0  0
  1  2  2  0  0  0
  2  3  1  0  0  0
  3  4  2  0  0  0
  4  5  1  0  0  0
  5  6  2  0  0  0
  4 19  1  0  0  0
 19 20  2  0  0  0
 20 21  1  0  0  0
 21 22  1  0  0  0
 22 23  2  0  0  0
 22 25  1  0  0  0
 25 26  1  0  0  0
 25 27  1  0  0  0
 25 28  1  0  0  0
 28 29  1  0  0  0
 29 30  1  0  0  0
 30 31  1  0  0  0
 31 32  1  0  0  0
 32 33  1  0  0  0
 12  7  1  0  0  0
  6  1  1  0  0  0
 23 19  1  0  0  0
 33 28  1  0  0  0
 21 24  1  0  0  0
M  END
> <minimizedAffinity>
-7.33586

> <CNNscore>
0.1079029366

> <CNNaffinity>
5.7998018265

> <CNN_VS>
0.6258156300

> <CNNaffinity_variance>
0.2789013982

$$$$
[H]c1nc([H])c(-c2c([H])c([H])c(OC([H])([H])[H])c(C([H])([H])c3c([H])nc4nc([C@@]([H])(C#N)N([H])C(=O)C([H])([H])F)nnnc3-4)c2[H])c(C([H])([H])[H])c1[H]


 35 38  0  0  0  0  0  0  0  0999 V2000
  -87.4185   32.6174   -0.8774 C   0  0  0  0  0  0  0  0  0  0  0  0
  -88.5757   31.9382   -0.5338 C   0  0  0  0  0  0  0  0  0  0  0  0
  -89.5374   32.2319   -1.4470 N   0  0  0  0  0  0  0  0  0  0  0  0
  -89.0695   33.0725   -2.3763 C   0  0  0  0  0  0  0  0  0  0  0  0
  -89.7671   33.5701   -3.4358 N   0  0  0  0  0  0  0  0  0  0  0  0
  -89.3441   34.5399   -4.3001 C   0  0  0  0  0  0  0  0  0  0  0  0
  -88.0586   34.7625   -4.5971 N   0  0  0  0  0  0  0  0  0  0  0  0
  -86.9327   34.6180   -3.9140 N   0  0  0  0  0  0  0  0  0  0  0  0
  -86.8177   34.1290   -2.6747 N   0  0  0  0  0  0  0  0  0  0  0  0
  -87.6819   33.3377   -2.0211 C   0  0  0  0  0  0  0  0  0  0  0  0
  -86.1209   32.6123   -0.1912 C   0  0  0  0  0  0  0  0  0  0  0  0
  -84.5178   31.0481    0.8734 C   0  0  0  0  0  0  0  0  0  0  0  0
  -84.2000   29.7874    1.3483 C   0  0  0  0  0  0  0  0  0  0  0  0
  -85.1110   28.7551    1.2779 C   0  0  0  0  0  0  0  0  0  0  0  0
  -86.3792   28.9521    0.7256 C   0  0  0  0  0  0  0  0  0  0  0  0
  -86.6643   30.2040    0.2660 C   0  0  0  0  0  0  0  0  0  0  0  0
  -85.7630   31.2655    0.3245 C   0  0  0  0  0  0  0  0  0  0  0  0
  -87.2823   27.8102    0.6969 C   0  0  0  0  0  0  0  0  0  0  0  0
  -87.7430   27.2449    1.8932 C   0  0  0  0  0  0  0  0  0  0  0  0
  -88.5734   26.2038    1.8723 N   0  0  0  0  0  0  0  0  0  0  0  0
  -89.0203   25.6323    0.7417 C   0  0  0  0  0  0  0  0  0  0  0  0
  -88.5931   26.1552   -0.4578 C   0  0  0  0  0  0  0  0  0  0  0  0
  -87.7197   27.2495   -0.4801 C   0  0  0  0  0  0  0  0  0  0  0  0
  -87.2859   27.7681   -1.7978 C   0  0  0  0  0  0  0  0  0  0  0  0
  -82.4309   32.1247    0.1523 C   0  0  0  0  0  0  0  0  0  0  0  0
  -83.5642   32.0598    0.9662 O   0  0  0  0  0  0  0  0  0  0  0  0
  -90.3809   35.3924   -4.9427 C   0  0  0  0  0  0  0  0  0  0  0  0
  -90.3003   35.3493   -6.3767 N   0  0  0  0  0  0  0  0  0  0  0  0
  -91.1833   34.5813   -7.1798 C   0  0  0  0  0  0  0  0  0  0  0  0
  -92.0728   33.9122   -6.5972 O   0  0  0  0  0  0  0  0  0  0  0  0
  -89.5342   35.9297   -6.8197 H   0  0  0  0  0  0  0  0  0  0  0  0
  -91.0261   34.5965   -8.6564 C   0  0  0  0  0  0  0  0  0  0  0  0
  -91.7111   33.5520   -9.2136 F   0  0  0  0  0  0  0  0  0  0  0  0
  -90.2538   36.7564   -4.4227 C   0  0  0  0  0  0  0  0  0  0  0  0
  -90.1556   37.8357   -4.0225 N   0  0  0  0  0  0  0  0  0  0  0  0
 25 26  1  0  0  0
 26 12  1  0  0  0
 12 13  2  0  0  0
 13 14  1  0  0  0
 14 15  2  0  0  0
 15 18  1  0  0  0
 18 19  2  0  0  0
 19 20  1  0  0  0
 20 21  2  0  0  0
 21 22  1  0  0  0
 22 23  2  0  0  0
 23 24  1  0  0  0
 15 16  1  0  0  0
 16 17  2  0  0  0
 17 11  1  0  0  0
 11  1  1  0  0  0
  1  2  2  0  0  0
  2  3  1  0  0  0
  3  4  2  0  0  0
  4  5  1  0  0  0
  5  6  2  0  0  0
  6  7  1  0  0  0
  7  8  2  0  0  0
  8  9  1  0  0  0
  9 10  2  0  0  0
  6 27  1  0  0  0
 27 28  1  0  0  0
 28 29  1  0  0  0
 29 30  2  0  0  0
 29 32  1  0  0  0
 32 33  1  0  0  0
 27 34  1  0  0  0
 34 35  3  0  0  0
 17 12  1  0  0  0
 10  1  1  0  0  0
 23 18  1  0  0  0
 10  4  1  0  0  0
 28 31  1  0  0  0
M  END
> <minimizedAffinity>
-8.22190

> <CNNscore>
0.1866850108

> <CNNaffinity>
6.4723653793

> <CNN_VS>
1.2082935572

> <CNNaffinity_variance>
0.3045902252

$$$$
[H]c1nc([H])c(-c2c([H])c([H])c(OC([H])([H])[H])c(C([H])([H])c3c([H])nc4nc([C@@]([H])(C#N)N([H])C(=O)C([H])([H])F)nnnc3-4)c2[H])c(C([H])([H])[H])c1[H]


 35 38  0  0  0  0  0  0  0  0999 V2000
  -87.5891   32.8247   -0.9596 C   0  0  0  0  0  0  0  0  0  0  0  0
  -88.7769   32.1974   -0.6220 C   0  0  0  0  0  0  0  0  0  0  0  0
  -89.6959   32.4625   -1.5866 N   0  0  0  0  0  0  0  0  0  0  0  0
  -89.1705   33.2347   -2.5441 C   0  0  0  0  0  0  0  0  0  0  0  0
  -89.8143   33.6879   -3.6563 N   0  0  0  0  0  0  0  0  0  0  0  0
  -89.3325   34.5941   -4.5579 C   0  0  0  0  0  0  0  0  0  0  0  0
  -88.0312   34.7649   -4.8180 N   0  0  0  0  0  0  0  0  0  0  0  0
  -86.9357   34.6310   -4.0852 N   0  0  0  0  0  0  0  0  0  0  0  0
  -86.8801   34.2123   -2.8164 N   0  0  0  0  0  0  0  0  0  0  0  0
  -87.7898   33.4836   -2.1519 C   0  0  0  0  0  0  0  0  0  0  0  0
  -86.3181   32.8255   -0.2251 C   0  0  0  0  0  0  0  0  0  0  0  0
  -84.6357   31.2429    0.6775 C   0  0  0  0  0  0  0  0  0  0  0  0
  -84.2654   29.9629    1.0524 C   0  0  0  0  0  0  0  0  0  0  0  0
  -85.1470   28.9094    0.9364 C   0  0  0  0  0  0  0  0  0  0  0  0
  -86.4377   29.1039    0.4376 C   0  0  0  0  0  0  0  0  0  0  0  0
  -86.7746   30.3750    0.0766 C   0  0  0  0  0  0  0  0  0  0  0  0
  -85.9039   31.4581    0.1830 C   0  0  0  0  0  0  0  0  0  0  0  0
  -87.3067   27.9384    0.3553 C   0  0  0  0  0  0  0  0  0  0  0  0
  -87.6842   27.2562    1.5194 C   0  0  0  0  0  0  0  0  0  0  0  0
  -88.4834   26.1930    1.4499 N   0  0  0  0  0  0  0  0  0  0  0  0
  -88.9744   25.7065    0.2981 C   0  0  0  0  0  0  0  0  0  0  0  0
  -88.6294   26.3456   -0.8712 C   0  0  0  0  0  0  0  0  0  0  0  0
  -87.7913   27.4670   -0.8423 C   0  0  0  0  0  0  0  0  0  0  0  0
  -87.4459   28.1123   -2.1298 C   0  0  0  0  0  0  0  0  0  0  0  0
  -82.7025   32.5318   -0.1196 C   0  0  0  0  0  0  0  0  0  0  0  0
  -83.7102   32.2756    0.8131 O   0  0  0  0  0  0  0  0  0  0  0  0
  -90.3204   35.4346   -5.2875 C   0  0  0  0  0  0  0  0  0  0  0  0
  -91.4384   35.7929   -4.4591 N   0  0  0  0  0  0  0  0  0  0  0  0
  -91.7838   37.1374   -4.1627 C   0  0  0  0  0  0  0  0  0  0  0  0
  -91.0706   38.0473   -4.6539 O   0  0  0  0  0  0  0  0  0  0  0  0
  -92.0078   34.9906   -4.0691 H   0  0  0  0  0  0  0  0  0  0  0  0
  -92.9576   37.4149   -3.2962 C   0  0  0  0  0  0  0  0  0  0  0  0
  -93.7365   36.2961   -3.1862 F   0  0  0  0  0  0  0  0  0  0  0  0
  -90.7360   34.7233   -6.4993 C   0  0  0  0  0  0  0  0  0  0  0  0
  -91.0738   34.1658   -7.4531 N   0  0  0  0  0  0  0  0  0  0  0  0
 25 26  1  0  0  0
 26 12  1  0  0  0
 12 13  2  0  0  0
 13 14  1  0  0  0
 14 15  2  0  0  0
 15 18  1  0  0  0
 18 19  2  0  0  0
 19 20  1  0  0  0
 20 21  2  0  0  0
 21 22  1  0  0  0
 22 23  2  0  0  0
 23 24  1  0  0  0
 15 16  1  0  0  0
 16 17  2  0  0  0
 17 11  1  0  0  0
 11  1  1  0  0  0
  1  2  2  0  0  0
  2  3  1  0  0  0
  3  4  2  0  0  0
  4  5  1  0  0  0
  5  6  2  0  0  0
  6  7  1  0  0  0
  7  8  2  0  0  0
  8  9  1  0  0  0
  9 10  2  0  0  0
  6 27  1  0  0  0
 27 28  1  0  0  0
 28 29  1  0  0  0
 29 30  2  0  0  0
 29 32  1  0  0  0
 32 33  1  0  0  0
 27 34  1  0  0  0
 34 35  3  0  0  0
 17 12  1  0  0  0
 10  1  1  0  0  0
 23 18  1  0  0  0
 10  4  1  0  0  0
 28 31  1  0  0  0
M  END
> <minimizedAffinity>
-7.97190

> <CNNscore>
0.1525223553

> <CNNaffinity>
6.3870291710

> <CNN_VS>
0.9741647243

> <CNNaffinity_variance>
0.3421658874

$$$$
[H]c1nc([H])c(-c2c([H])c([H])c(OC([H])([H])[H])c(C([H])([H])c3c([H])nc4nc([C@@]([H])(C#N)N([H])C(=O)C([H])([H])F)nnnc3-4)c2[H])c(C([H])([H])[H])c1[H]


 35 38  0  0  0  0  0  0  0  0999 V2000
  -88.9138   30.2011   -2.3939 C   0  0  0  0  0  0  0  0  0  0  0  0
  -88.3761   29.4901   -3.4540 C   0  0  0  0  0  0  0  0  0  0  0  0
  -87.9243   30.3728   -4.3824 N   0  0  0  0  0  0  0  0  0  0  0  0
  -88.1386   31.6319   -3.9849 C   0  0  0  0  0  0  0  0  0  0  0  0
  -87.8096   32.7605   -4.6740 N   0  0  0  0  0  0  0  0  0  0  0  0
  -88.1573   34.0401   -4.3453 C   0  0  0  0  0  0  0  0  0  0  0  0
  -88.3779   34.4523   -3.0916 N   0  0  0  0  0  0  0  0  0  0  0  0
  -88.8437   33.8487   -2.0082 N   0  0  0  0  0  0  0  0  0  0  0  0
  -89.1863   32.5601   -1.9073 N   0  0  0  0  0  0  0  0  0  0  0  0
  -88.7866   31.5413   -2.6834 C   0  0  0  0  0  0  0  0  0  0  0  0
  -89.5214   29.6813   -1.1628 C   0  0  0  0  0  0  0  0  0  0  0  0
  -88.7825   28.2614    0.7313 C   0  0  0  0  0  0  0  0  0  0  0  0
  -87.8222   27.8934    1.6578 C   0  0  0  0  0  0  0  0  0  0  0  0
  -86.5970   28.5244    1.6949 C   0  0  0  0  0  0  0  0  0  0  0  0
  -86.2906   29.5521    0.7992 C   0  0  0  0  0  0  0  0  0  0  0  0
  -87.2555   29.8932   -0.1021 C   0  0  0  0  0  0  0  0  0  0  0  0
  -88.5020   29.2725   -0.1619 C   0  0  0  0  0  0  0  0  0  0  0  0
  -84.9713   30.1596    0.9025 C   0  0  0  0  0  0  0  0  0  0  0  0
  -83.9184   29.4610    1.5079 C   0  0  0  0  0  0  0  0  0  0  0  0
  -82.7084   30.0101    1.6000 N   0  0  0  0  0  0  0  0  0  0  0  0
  -82.4110   31.2351    1.1358 C   0  0  0  0  0  0  0  0  0  0  0  0
  -83.4156   31.9580    0.5332 C   0  0  0  0  0  0  0  0  0  0  0  0
  -84.7020   31.4174    0.4162 C   0  0  0  0  0  0  0  0  0  0  0  0
  -85.7472   32.2406   -0.2345 C   0  0  0  0  0  0  0  0  0  0  0  0
  -91.0300   27.8695    1.6418 C   0  0  0  0  0  0  0  0  0  0  0  0
  -90.0059   27.5946    0.7325 O   0  0  0  0  0  0  0  0  0  0  0  0
  -88.2961   35.0243   -5.4529 C   0  0  0  0  0  0  0  0  0  0  0  0
  -87.5799   36.2408   -5.1850 N   0  0  0  0  0  0  0  0  0  0  0  0
  -86.8700   36.9580   -6.1831 C   0  0  0  0  0  0  0  0  0  0  0  0
  -86.8759   36.4969   -7.3516 O   0  0  0  0  0  0  0  0  0  0  0  0
  -87.6049   36.5879   -4.1855 H   0  0  0  0  0  0  0  0  0  0  0  0
  -86.1572   38.2079   -5.8153 C   0  0  0  0  0  0  0  0  0  0  0  0
  -85.0934   38.4067   -6.6517 F   0  0  0  0  0  0  0  0  0  0  0  0
  -89.7219   35.2634   -5.6910 C   0  0  0  0  0  0  0  0  0  0  0  0
  -90.8476   35.4414   -5.8809 N   0  0  0  0  0  0  0  0  0  0  0  0
 25 26  1  0  0  0
 26 12  1  0  0  0
 12 13  2  0  0  0
 13 14  1  0  0  0
 14 15  2  0  0  0
 15 18  1  0  0  0
 18 19  2  0  0  0
 19 20  1  0  0  0
 20 21  2  0  0  0
 21 22  1  0  0  0
 22 23  2  0  0  0
 23 24  1  0  0  0
 15 16  1  0  0  0
 16 17  2  0  0  0
 17 11  1  0  0  0
 11  1  1  0  0  0
  1  2  2  0  0  0
  2  3  1  0  0  0
  3  4  2  0  0  0
  4  5  1  0  0  0
  5  6  2  0  0  0
  6  7  1  0  0  0
  7  8  2  0  0  0
  8  9  1  0  0  0
  9 10  2  0  0  0
  6 27  1  0  0  0
 27 28  1  0  0  0
 28 29  1  0  0  0
 29 30  2  0  0  0
 29 32  1  0  0  0
 32 33  1  0  0  0
 27 34  1  0  0  0
 34 35  3  0  0  0
 17 12  1  0  0  0
 10  1  1  0  0  0
 23 18  1  0  0  0
 10  4  1  0  0  0
 28 31  1  0  0  0
M  END
> <minimizedAffinity>
-8.66768

> <CNNscore>
0.1244269162

> <CNNaffinity>
6.4941854477

> <CNN_VS>
0.8080514669

> <CNNaffinity_variance>
0.2666671872

$$$$
[H]c1nc([H])c(-c2c([H])c([H])c(OC([H])([H])[H])c(C([H])([H])c3c([H])nc4nc([C@@]([H])(C#N)N([H])C(=O)C([H])([H])F)nnnc3-4)c2[H])c(C([H])([H])[H])c1[H]


 35 38  0  0  0  0  0  0  0  0999 V2000
  -89.1000   28.5683   -1.7327 C   0  0  0  0  0  0  0  0  0  0  0  0
  -89.6088   28.9962   -0.5176 C   0  0  0  0  0  0  0  0  0  0  0  0
  -89.4244   30.3384   -0.4196 N   0  0  0  0  0  0  0  0  0  0  0  0
  -88.8182   30.8159   -1.5122 C   0  0  0  0  0  0  0  0  0  0  0  0
  -88.4829   32.1163   -1.7433 N   0  0  0  0  0  0  0  0  0  0  0  0
  -87.7343   32.5865   -2.7848 C   0  0  0  0  0  0  0  0  0  0  0  0
  -87.6730   31.9954   -3.9835 N   0  0  0  0  0  0  0  0  0  0  0  0
  -87.7687   30.7342   -4.3776 N   0  0  0  0  0  0  0  0  0  0  0  0
  -88.0158   29.6784   -3.5950 N   0  0  0  0  0  0  0  0  0  0  0  0
  -88.5967   29.6713   -2.3856 C   0  0  0  0  0  0  0  0  0  0  0  0
  -89.0719   27.2066   -2.2803 C   0  0  0  0  0  0  0  0  0  0  0  0
  -90.8373   25.4652   -2.2556 C   0  0  0  0  0  0  0  0  0  0  0  0
  -92.1025   25.0275   -2.6077 C   0  0  0  0  0  0  0  0  0  0  0  0
  -92.9492   25.8300   -3.3422 C   0  0  0  0  0  0  0  0  0  0  0  0
  -92.5546   27.1064   -3.7515 C   0  0  0  0  0  0  0  0  0  0  0  0
  -91.3034   27.5108   -3.3902 C   0  0  0  0  0  0  0  0  0  0  0  0
  -90.4270   26.7207   -2.6485 C   0  0  0  0  0  0  0  0  0  0  0  0
  -93.5131   27.8905   -4.5176 C   0  0  0  0  0  0  0  0  0  0  0  0
  -94.4715   28.6723   -3.8593 C   0  0  0  0  0  0  0  0  0  0  0  0
  -95.3469   29.3955   -4.5554 N   0  0  0  0  0  0  0  0  0  0  0  0
  -95.3798   29.4320   -5.8978 C   0  0  0  0  0  0  0  0  0  0  0  0
  -94.4562   28.6787   -6.5864 C   0  0  0  0  0  0  0  0  0  0  0  0
  -93.5183   27.9041   -5.8927 C   0  0  0  0  0  0  0  0  0  0  0  0
  -92.5518   27.1070   -6.6827 C   0  0  0  0  0  0  0  0  0  0  0  0
  -90.0769   23.2253   -1.5935 C   0  0  0  0  0  0  0  0  0  0  0  0
  -90.0173   24.6185   -1.5127 O   0  0  0  0  0  0  0  0  0  0  0  0
  -86.9452   33.8286   -2.5626 C   0  0  0  0  0  0  0  0  0  0  0  0
  -86.7015   34.5380   -3.7882 N   0  0  0  0  0  0  0  0  0  0  0  0
  -87.2916   35.7938   -4.0872 C   0  0  0  0  0  0  0  0  0  0  0  0
  -88.0612   36.2979   -3.2318 O   0  0  0  0  0  0  0  0  0  0  0  0
  -86.0463   34.0718   -4.4762 H   0  0  0  0  0  0  0  0  0  0  0  0
  -86.9825   36.4557   -5.3802 C   0  0  0  0  0  0  0  0  0  0  0  0
  -87.5278   35.7461   -6.4145 F   0  0  0  0  0  0  0  0  0  0  0  0
  -85.7022   33.4763   -1.8714 C   0  0  0  0  0  0  0  0  0  0  0  0
  -84.7184   33.1941   -1.3354 N   0  0  0  0  0  0  0  0  0  0  0  0
 25 26  1  0  0  0
 26 12  1  0  0  0
 12 13  2  0  0  0
 13 14  1  0  0  0
 14 15  2  0  0  0
 15 18  1  0  0  0
 18 19  2  0  0  0
 19 20  1  0  0  0
 20 21  2  0  0  0
 21 22  1  0  0  0
 22 23  2  0  0  0
 23 24  1  0  0  0
 15 16  1  0  0  0
 16 17  2  0  0  0
 17 11  1  0  0  0
 11  1  1  0  0  0
  1  2  2  0  0  0
  2  3  1  0  0  0
  3  4  2  0  0  0
  4  5  1  0  0  0
  5  6  2  0  0  0
  6  7  1  0  0  0
  7  8  2  0  0  0
  8  9  1  0  0  0
  9 10  2  0  0  0
  6 27  1  0  0  0
 27 28  1  0  0  0
 28 29  1  0  0  0
 29 30  2  0  0  0
 29 32  1  0  0  0
 32 33  1  0  0  0
 27 34  1  0  0  0
 34 35  3  0  0  0
 17 12  1  0  0  0
 10  1  1  0  0  0
 23 18  1  0  0  0
 10  4  1  0  0  0
 28 31  1  0  0  0
M  END
> <minimizedAffinity>
-7.28583

> <CNNscore>
0.1230647564

> <CNNaffinity>
5.9213538170

> <CNN_VS>
0.7287099361

> <CNNaffinity_variance>
0.3931564689

$$$$
[H]c1nc([H])c(-c2c([H])c([H])c(OC([H])([H])[H])c(C([H])([H])c3c([H])nc4nc([C@@]([H])(C#N)N([H])C(=O)C([H])([H])F)nnnc3-4)c2[H])c(C([H])([H])[H])c1[H]


 35 38  0  0  0  0  0  0  0  0999 V2000
  -86.9734   27.9813   -0.4250 C   0  0  0  0  0  0  0  0  0  0  0  0
  -86.0766   28.1306    0.6199 C   0  0  0  0  0  0  0  0  0  0  0  0
  -85.7845   29.4503    0.7544 N   0  0  0  0  0  0  0  0  0  0  0  0
  -86.4459   30.1783   -0.1521 C   0  0  0  0  0  0  0  0  0  0  0  0
  -86.3841   31.5317   -0.2980 N   0  0  0  0  0  0  0  0  0  0  0  0
  -86.9374   32.2630   -1.3105 C   0  0  0  0  0  0  0  0  0  0  0  0
  -88.0331   31.8924   -1.9831 N   0  0  0  0  0  0  0  0  0  0  0  0
  -88.5425   30.7127   -2.3056 N   0  0  0  0  0  0  0  0  0  0  0  0
  -88.0511   29.5184   -1.9586 N   0  0  0  0  0  0  0  0  0  0  0  0
  -87.2312   29.2340   -0.9354 C   0  0  0  0  0  0  0  0  0  0  0  0
  -87.5739   26.7452   -0.9411 C   0  0  0  0  0  0  0  0  0  0  0  0
  -89.4712   25.2245   -0.4537 C   0  0  0  0  0  0  0  0  0  0  0  0
  -90.4035   24.7061    0.4285 C   0  0  0  0  0  0  0  0  0  0  0  0
  -90.4491   25.1310    1.7392 C   0  0  0  0  0  0  0  0  0  0  0  0
  -89.5566   26.0958    2.2135 C   0  0  0  0  0  0  0  0  0  0  0  0
  -88.6495   26.5882    1.3222 C   0  0  0  0  0  0  0  0  0  0  0  0
  -88.5809   26.1771   -0.0077 C   0  0  0  0  0  0  0  0  0  0  0  0
  -89.6691   26.4822    3.6129 C   0  0  0  0  0  0  0  0  0  0  0  0
  -90.0766   27.7780    3.9564 C   0  0  0  0  0  0  0  0  0  0  0  0
  -90.1865   28.1346    5.2349 N   0  0  0  0  0  0  0  0  0  0  0  0
  -89.9244   27.3092    6.2618 C   0  0  0  0  0  0  0  0  0  0  0  0
  -89.5205   26.0258    5.9709 C   0  0  0  0  0  0  0  0  0  0  0  0
  -89.3922   25.6105    4.6398 C   0  0  0  0  0  0  0  0  0  0  0  0
  -88.9474   24.2214    4.3830 C   0  0  0  0  0  0  0  0  0  0  0  0
  -90.2886   23.7343   -2.2271 C   0  0  0  0  0  0  0  0  0  0  0  0
  -89.4637   24.7640   -1.7688 O   0  0  0  0  0  0  0  0  0  0  0  0
  -86.2756   33.5440   -1.6789 C   0  0  0  0  0  0  0  0  0  0  0  0
  -86.4175   33.8406   -3.0777 N   0  0  0  0  0  0  0  0  0  0  0  0
  -87.3559   34.7799   -3.5794 C   0  0  0  0  0  0  0  0  0  0  0  0
  -88.0910   35.3730   -2.7511 O   0  0  0  0  0  0  0  0  0  0  0  0
  -85.7758   33.3147   -3.7347 H   0  0  0  0  0  0  0  0  0  0  0  0
  -87.4333   35.0235   -5.0423 C   0  0  0  0  0  0  0  0  0  0  0  0
  -88.6206   34.5564   -5.5351 F   0  0  0  0  0  0  0  0  0  0  0  0
  -84.8708   33.4806   -1.2671 C   0  0  0  0  0  0  0  0  0  0  0  0
  -83.7660   33.4338   -0.9326 N   0  0  0  0  0  0  0  0  0  0  0  0
 25 26  1  0  0  0
 26 12  1  0  0  0
 12 13  2  0  0  0
 13 14  1  0  0  0
 14 15  2  0  0  0
 15 18  1  0  0  0
 18 19  2  0  0  0
 19 20  1  0  0  0
 20 21  2  0  0  0
 21 22  1  0  0  0
 22 23  2  0  0  0
 23 24  1  0  0  0
 15 16  1  0  0  0
 16 17  2  0  0  0
 17 11  1  0  0  0
 11  1  1  0  0  0
  1  2  2  0  0  0
  2  3  1  0  0  0
  3  4  2  0  0  0
  4  5  1  0  0  0
  5  6  2  0  0  0
  6  7  1  0  0  0
  7  8  2  0  0  0
  8  9  1  0  0  0
  9 10  2  0  0  0
  6 27  1  0  0  0
 27 28  1  0  0  0
 28 29  1  0  0  0
 29 30  2  0  0  0
 29 32  1  0  0  0
 32 33  1  0  0  0
 27 34  1  0  0  0
 34 35  3  0  0  0
 17 12  1  0  0  0
 10  1  1  0  0  0
 23 18  1  0  0  0
 10  4  1  0  0  0
 28 31  1  0  0  0
M  END
> <minimizedAffinity>
-7.98310

> <CNNscore>
0.1212523431

> <CNNaffinity>
6.6690688133

> <CNN_VS>
0.8086402416

> <CNNaffinity_variance>
0.1851432770

$$$$
[H]c1nc([H])c(-c2c([H])c([H])c(OC([H])([H])[H])c(C([H])([H])c3c([H])nc4nc([C@@]([H])(C#N)N([H])C(=O)C([H])([H])F)nnnc3-4)c2[H])c(C([H])([H])[H])c1[H]


 35 38  0  0  0  0  0  0  0  0999 V2000
  -89.0166   25.6437   -0.3442 C   0  0  0  0  0  0  0  0  0  0  0  0
  -89.4294   25.3777    0.9509 C   0  0  0  0  0  0  0  0  0  0  0  0
  -88.7835   26.2250    1.7937 N   0  0  0  0  0  0  0  0  0  0  0  0
  -87.9646   27.0368    1.1160 C   0  0  0  0  0  0  0  0  0  0  0  0
  -87.1682   28.0052    1.6498 N   0  0  0  0  0  0  0  0  0  0  0  0
  -86.2233   28.7339    0.9847 C   0  0  0  0  0  0  0  0  0  0  0  0
  -86.2867   29.0193   -0.3209 N   0  0  0  0  0  0  0  0  0  0  0  0
  -86.7982   28.3820   -1.3637 N   0  0  0  0  0  0  0  0  0  0  0  0
  -87.4670   27.2245   -1.3321 N   0  0  0  0  0  0  0  0  0  0  0  0
  -88.1025   26.6720   -0.2875 C   0  0  0  0  0  0  0  0  0  0  0  0
  -89.4374   24.9871   -1.5878 C   0  0  0  0  0  0  0  0  0  0  0  0
  -91.8837   24.5988   -1.7091 C   0  0  0  0  0  0  0  0  0  0  0  0
  -93.1481   24.9967   -2.1078 C   0  0  0  0  0  0  0  0  0  0  0  0
  -93.3338   26.1772   -2.7951 C   0  0  0  0  0  0  0  0  0  0  0  0
  -92.2521   27.0043   -3.1083 C   0  0  0  0  0  0  0  0  0  0  0  0
  -91.0187   26.5870   -2.7029 C   0  0  0  0  0  0  0  0  0  0  0  0
  -90.8021   25.3990   -2.0072 C   0  0  0  0  0  0  0  0  0  0  0  0
  -92.5377   28.2365   -3.8299 C   0  0  0  0  0  0  0  0  0  0  0  0
  -92.5647   29.4617   -3.1508 C   0  0  0  0  0  0  0  0  0  0  0  0
  -92.8200   30.5921   -3.8071 N   0  0  0  0  0  0  0  0  0  0  0  0
  -93.0637   30.6461   -5.1271 C   0  0  0  0  0  0  0  0  0  0  0  0
  -93.0476   29.4656   -5.8349 C   0  0  0  0  0  0  0  0  0  0  0  0
  -92.7834   28.2549   -5.1828 C   0  0  0  0  0  0  0  0  0  0  0  0
  -92.7851   27.0135   -5.9905 C   0  0  0  0  0  0  0  0  0  0  0  0
  -92.3050   23.1676    0.2423 C   0  0  0  0  0  0  0  0  0  0  0  0
  -91.7458   23.3975   -1.0168 O   0  0  0  0  0  0  0  0  0  0  0  0
  -85.0604   29.2346    1.7669 C   0  0  0  0  0  0  0  0  0  0  0  0
  -84.1817   30.0429    0.9675 N   0  0  0  0  0  0  0  0  0  0  0  0
  -83.7424   31.3335    1.3623 C   0  0  0  0  0  0  0  0  0  0  0  0
  -84.1482   31.7785    2.4648 O   0  0  0  0  0  0  0  0  0  0  0  0
  -83.8682   29.6237    0.0477 H   0  0  0  0  0  0  0  0  0  0  0  0
  -82.8332   32.0988    0.4717 C   0  0  0  0  0  0  0  0  0  0  0  0
  -82.9204   31.6258   -0.8087 F   0  0  0  0  0  0  0  0  0  0  0  0
  -84.3684   28.0886    2.3624 C   0  0  0  0  0  0  0  0  0  0  0  0
  -83.8188   27.1823    2.8223 N   0  0  0  0  0  0  0  0  0  0  0  0
 25 26  1  0  0  0
 26 12  1  0  0  0
 12 13  2  0  0  0
 13 14  1  0  0  0
 14 15  2  0  0  0
 15 18  1  0  0  0
 18 19  2  0  0  0
 19 20  1  0  0  0
 20 21  2  0  0  0
 21 22  1  0  0  0
 22 23  2  0  0  0
 23 24  1  0  0  0
 15 16  1  0  0  0
 16 17  2  0  0  0
 17 11  1  0  0  0
 11  1  1  0  0  0
  1  2  2  0  0  0
  2  3  1  0  0  0
  3  4  2  0  0  0
  4  5  1  0  0  0
  5  6  2  0  0  0
  6  7  1  0  0  0
  7  8  2  0  0  0
  8  9  1  0  0  0
  9 10  2  0  0  0
  6 27  1  0  0  0
 27 28  1  0  0  0
 28 29  1  0  0  0
 29 30  2  0  0  0
 29 32  1  0  0  0
 32 33  1  0  0  0
 27 34  1  0  0  0
 34 35  3  0  0  0
 17 12  1  0  0  0
 10  1  1  0  0  0
 23 18  1  0  0  0
 10  4  1  0  0  0
 28 31  1  0  0  0
M  END
> <minimizedAffinity>
-7.56716

> <CNNscore>
0.1063063890

> <CNNaffinity>
6.2199945450

> <CNN_VS>
0.6612251401

> <CNNaffinity_variance>
0.2475787103

$$$$
[H]c1nc([H])c(-c2c([H])c([H])c(OC([H])([H])[H])c(C([H])([H])c3c([H])nc4nc([C@@]([H])(C#N)N([H])C(=O)C([H])([H])F)nnnc3-4)c2[H])c(C([H])([H])[H])c1[H]


 35 38  0  0  0  0  0  0  0  0999 V2000
  -87.0665   28.0763   -0.1896 C   0  0  0  0  0  0  0  0  0  0  0  0
  -86.5096   28.3781    1.0421 C   0  0  0  0  0  0  0  0  0  0  0  0
  -86.3249   29.7218    1.1162 N   0  0  0  0  0  0  0  0  0  0  0  0
  -86.7335   30.3204   -0.0081 C   0  0  0  0  0  0  0  0  0  0  0  0
  -86.6916   31.6571   -0.2692 N   0  0  0  0  0  0  0  0  0  0  0  0
  -86.9667   32.2574   -1.4652 C   0  0  0  0  0  0  0  0  0  0  0  0
  -87.8100   31.7538   -2.3737 N   0  0  0  0  0  0  0  0  0  0  0  0
  -88.1556   30.5177   -2.7020 N   0  0  0  0  0  0  0  0  0  0  0  0
  -87.7313   29.3955   -2.1115 N   0  0  0  0  0  0  0  0  0  0  0  0
  -87.2232   29.2589   -0.8773 C   0  0  0  0  0  0  0  0  0  0  0  0
  -87.4421   26.7610   -0.7224 C   0  0  0  0  0  0  0  0  0  0  0  0
  -89.4243   26.1028    0.6146 C   0  0  0  0  0  0  0  0  0  0  0  0
  -90.7837   25.8617    0.7146 C   0  0  0  0  0  0  0  0  0  0  0  0
  -91.6108   26.0130   -0.3779 C   0  0  0  0  0  0  0  0  0  0  0  0
  -91.1007   26.4134   -1.6155 C   0  0  0  0  0  0  0  0  0  0  0  0
  -89.7583   26.6438   -1.6843 C   0  0  0  0  0  0  0  0  0  0  0  0
  -88.8992   26.4988   -0.5964 C   0  0  0  0  0  0  0  0  0  0  0  0
  -92.0448   26.5557   -2.7150 C   0  0  0  0  0  0  0  0  0  0  0  0
  -92.4588   27.8286   -3.1291 C   0  0  0  0  0  0  0  0  0  0  0  0
  -93.3180   27.9643   -4.1377 N   0  0  0  0  0  0  0  0  0  0  0  0
  -93.8382   26.9275   -4.8153 C   0  0  0  0  0  0  0  0  0  0  0  0
  -93.4593   25.6578   -4.4423 C   0  0  0  0  0  0  0  0  0  0  0  0
  -92.5582   25.4712   -3.3868 C   0  0  0  0  0  0  0  0  0  0  0  0
  -92.1898   24.0839   -3.0221 C   0  0  0  0  0  0  0  0  0  0  0  0
  -89.0612   26.2343    3.0404 C   0  0  0  0  0  0  0  0  0  0  0  0
  -88.6285   25.9364    1.7462 O   0  0  0  0  0  0  0  0  0  0  0  0
  -86.2838   33.5452   -1.7648 C   0  0  0  0  0  0  0  0  0  0  0  0
  -86.4036   33.9087   -3.1498 N   0  0  0  0  0  0  0  0  0  0  0  0
  -87.3266   34.8794   -3.6192 C   0  0  0  0  0  0  0  0  0  0  0  0
  -88.0679   35.4398   -2.7739 O   0  0  0  0  0  0  0  0  0  0  0  0
  -85.7575   33.4083   -3.8222 H   0  0  0  0  0  0  0  0  0  0  0  0
  -87.3815   35.1923   -5.0699 C   0  0  0  0  0  0  0  0  0  0  0  0
  -86.6326   36.3043   -5.3403 F   0  0  0  0  0  0  0  0  0  0  0  0
  -84.8855   33.4439   -1.3389 C   0  0  0  0  0  0  0  0  0  0  0  0
  -83.7853   33.3551   -0.9976 N   0  0  0  0  0  0  0  0  0  0  0  0
 25 26  1  0  0  0
 26 12  1  0  0  0
 12 13  2  0  0  0
 13 14  1  0  0  0
 14 15  2  0  0  0
 15 18  1  0  0  0
 18 19  2  0  0  0
 19 20  1  0  0  0
 20 21  2  0  0  0
 21 22  1  0  0  0
 22 23  2  0  0  0
 23 24  1  0  0  0
 15 16  1  0  0  0
 16 17  2  0  0  0
 17 11  1  0  0  0
 11  1  1  0  0  0
  1  2  2  0  0  0
  2  3  1  0  0  0
  3  4  2  0  0  0
  4  5  1  0  0  0
  5  6  2  0  0  0
  6  7  1  0  0  0
  7  8  2  0  0  0
  8  9  1  0  0  0
  9 10  2  0  0  0
  6 27  1  0  0  0
 27 28  1  0  0  0
 28 29  1  0  0  0
 29 30  2  0  0  0
 29 32  1  0  0  0
 32 33  1  0  0  0
 27 34  1  0  0  0
 34 35  3  0  0  0
 17 12  1  0  0  0
 10  1  1  0  0  0
 23 18  1  0  0  0
 10  4  1  0  0  0
 28 31  1  0  0  0
M  END
> <minimizedAffinity>
-7.63355

> <CNNscore>
0.1013251990

> <CNNaffinity>
6.2394895554

> <CNN_VS>
0.6322175264

> <CNNaffinity_variance>
0.2629490793

$$$$
[H]c1nc([H])c(-c2c([H])c([H])c(OC([H])([H])[H])c(C([H])([H])c3c([H])nc4nc([C@@]([H])(C#N)N([H])C(=O)C([H])([H])F)nnnc3-4)c2[H])c(C([H])([H])[H])c1[H]


 35 38  0  0  0  0  0  0  0  0999 V2000
  -89.6425   28.5763   -1.3499 C   0  0  0  0  0  0  0  0  0  0  0  0
  -88.8823   28.9382   -2.4496 C   0  0  0  0  0  0  0  0  0  0  0  0
  -87.5802   29.0136   -2.0699 N   0  0  0  0  0  0  0  0  0  0  0  0
  -87.4458   28.7188   -0.7721 C   0  0  0  0  0  0  0  0  0  0  0  0
  -86.2794   28.6991   -0.0679 N   0  0  0  0  0  0  0  0  0  0  0  0
  -86.1523   28.5457    1.2836 C   0  0  0  0  0  0  0  0  0  0  0  0
  -87.0251   27.8717    2.0413 N   0  0  0  0  0  0  0  0  0  0  0  0
  -88.3305   27.6639    1.9524 N   0  0  0  0  0  0  0  0  0  0  0  0
  -89.1323   28.0842    0.9682 N   0  0  0  0  0  0  0  0  0  0  0  0
  -88.7864   28.4292   -0.2814 C   0  0  0  0  0  0  0  0  0  0  0  0
  -91.0941   28.3722   -1.2728 C   0  0  0  0  0  0  0  0  0  0  0  0
  -92.2166   26.8666   -2.8924 C   0  0  0  0  0  0  0  0  0  0  0  0
  -92.5838   25.5961   -3.3011 C   0  0  0  0  0  0  0  0  0  0  0  0
  -92.2378   24.4871   -2.5590 C   0  0  0  0  0  0  0  0  0  0  0  0
  -91.5075   24.6142   -1.3745 C   0  0  0  0  0  0  0  0  0  0  0  0
  -91.1597   25.8775   -0.9967 C   0  0  0  0  0  0  0  0  0  0  0  0
  -91.4960   27.0157   -1.7273 C   0  0  0  0  0  0  0  0  0  0  0  0
  -91.1780   23.3912   -0.6562 C   0  0  0  0  0  0  0  0  0  0  0  0
  -89.9371   22.7707   -0.8517 C   0  0  0  0  0  0  0  0  0  0  0  0
  -89.6287   21.6550   -0.1930 N   0  0  0  0  0  0  0  0  0  0  0  0
  -90.4541   21.0560    0.6814 C   0  0  0  0  0  0  0  0  0  0  0  0
  -91.6846   21.6311    0.9047 C   0  0  0  0  0  0  0  0  0  0  0  0
  -92.0482   22.8044    0.2324 C   0  0  0  0  0  0  0  0  0  0  0  0
  -93.3866   23.3772    0.5044 C   0  0  0  0  0  0  0  0  0  0  0  0
  -92.7262   27.8948   -5.0642 C   0  0  0  0  0  0  0  0  0  0  0  0
  -92.5893   27.9571   -3.6756 O   0  0  0  0  0  0  0  0  0  0  0  0
  -84.9712   29.1682    1.9413 C   0  0  0  0  0  0  0  0  0  0  0  0
  -84.2585   30.0429    1.0516 N   0  0  0  0  0  0  0  0  0  0  0  0
  -83.9732   31.3984    1.3613 C   0  0  0  0  0  0  0  0  0  0  0  0
  -84.3680   31.8419    2.4684 O   0  0  0  0  0  0  0  0  0  0  0  0
  -83.9475   29.6222    0.1317 H   0  0  0  0  0  0  0  0  0  0  0  0
  -83.2302   32.2299    0.3806 C   0  0  0  0  0  0  0  0  0  0  0  0
  -81.9306   31.8117    0.2977 F   0  0  0  0  0  0  0  0  0  0  0  0
  -84.1160   28.1036    2.4724 C   0  0  0  0  0  0  0  0  0  0  0  0
  -83.4330   27.2691    2.8871 N   0  0  0  0  0  0  0  0  0  0  0  0
 25 26  1  0  0  0
 26 12  1  0  0  0
 12 13  2  0  0  0
 13 14  1  0  0  0
 14 15  2  0  0  0
 15 18  1  0  0  0
 18 19  2  0  0  0
 19 20  1  0  0  0
 20 21  2  0  0  0
 21 22  1  0  0  0
 22 23  2  0  0  0
 23 24  1  0  0  0
 15 16  1  0  0  0
 16 17  2  0  0  0
 17 11  1  0  0  0
 11  1  1  0  0  0
  1  2  2  0  0  0
  2  3  1  0  0  0
  3  4  2  0  0  0
  4  5  1  0  0  0
  5  6  2  0  0  0
  6  7  1  0  0  0
  7  8  2  0  0  0
  8  9  1  0  0  0
  9 10  2  0  0  0
  6 27  1  0  0  0
 27 28  1  0  0  0
 28 29  1  0  0  0
 29 30  2  0  0  0
 29 32  1  0  0  0
 32 33  1  0  0  0
 27 34  1  0  0  0
 34 35  3  0  0  0
 17 12  1  0  0  0
 10  1  1  0  0  0
 23 18  1  0  0  0
 10  4  1  0  0  0
 28 31  1  0  0  0
M  END
> <minimizedAffinity>
-7.81226

> <CNNscore>
0.0940334871

> <CNNaffinity>
6.1179285049

> <CNN_VS>
0.5752901435

> <CNNaffinity_variance>
0.5823490620

$$$$
[H]c1nc([H])c(-c2c([H])c([H])c(OC([H])([H])[H])c(C([H])([H])c3c([H])nc4nc([C@@]([H])(C#N)N([H])C(=O)C([H])([H])F)nnnc3-4)c2[H])c(C([H])([H])[H])c1[H]


 35 38  0  0  0  0  0  0  0  0999 V2000
  -89.2115   31.3224   -1.9650 C   0  0  0  0  0  0  0  0  0  0  0  0
  -88.7096   31.3130   -3.2559 C   0  0  0  0  0  0  0  0  0  0  0  0
  -89.3545   30.3498   -3.9642 N   0  0  0  0  0  0  0  0  0  0  0  0
  -90.2576   29.7236   -3.2017 C   0  0  0  0  0  0  0  0  0  0  0  0
  -91.0771   28.7082   -3.5943 N   0  0  0  0  0  0  0  0  0  0  0  0
  -91.8923   27.9672   -2.7864 C   0  0  0  0  0  0  0  0  0  0  0  0
  -92.4300   28.4259   -1.6503 N   0  0  0  0  0  0  0  0  0  0  0  0
  -92.0260   29.3081   -0.7483 N   0  0  0  0  0  0  0  0  0  0  0  0
  -90.9062   30.0370   -0.8023 N   0  0  0  0  0  0  0  0  0  0  0  0
  -90.1797   30.3463   -1.8871 C   0  0  0  0  0  0  0  0  0  0  0  0
  -88.8250   32.1866   -0.8432 C   0  0  0  0  0  0  0  0  0  0  0  0
  -86.5963   33.2355   -1.1303 C   0  0  0  0  0  0  0  0  0  0  0  0
  -85.2282   33.2339   -0.9196 C   0  0  0  0  0  0  0  0  0  0  0  0
  -84.6225   32.2155   -0.2150 C   0  0  0  0  0  0  0  0  0  0  0  0
  -85.3718   31.1573    0.3057 C   0  0  0  0  0  0  0  0  0  0  0  0
  -86.7169   31.1853    0.0827 C   0  0  0  0  0  0  0  0  0  0  0  0
  -87.3551   32.2017   -0.6257 C   0  0  0  0  0  0  0  0  0  0  0  0
  -84.6539   30.1272    1.0432 C   0  0  0  0  0  0  0  0  0  0  0  0
  -85.3246   28.9797    1.4864 C   0  0  0  0  0  0  0  0  0  0  0  0
  -84.6713   28.0321    2.1566 N   0  0  0  0  0  0  0  0  0  0  0  0
  -83.3623   28.0984    2.4510 C   0  0  0  0  0  0  0  0  0  0  0  0
  -82.6630   29.2088    2.0350 C   0  0  0  0  0  0  0  0  0  0  0  0
  -83.3122   30.2282    1.3277 C   0  0  0  0  0  0  0  0  0  0  0  0
  -82.5143   31.4039    0.9101 C   0  0  0  0  0  0  0  0  0  0  0  0
  -86.9729   34.4705   -3.2199 C   0  0  0  0  0  0  0  0  0  0  0  0
  -87.1631   34.2863   -1.8485 O   0  0  0  0  0  0  0  0  0  0  0  0
  -92.1933   26.5706   -3.2031 C   0  0  0  0  0  0  0  0  0  0  0  0
  -91.0817   25.6892   -2.9745 N   0  0  0  0  0  0  0  0  0  0  0  0
  -90.9738   24.8592   -1.8281 C   0  0  0  0  0  0  0  0  0  0  0  0
  -91.9004   24.9069   -0.9812 O   0  0  0  0  0  0  0  0  0  0  0  0
  -90.3273   25.6856   -3.7167 H   0  0  0  0  0  0  0  0  0  0  0  0
  -89.7881   23.9785   -1.6742 C   0  0  0  0  0  0  0  0  0  0  0  0
  -89.5551   23.7297   -0.3497 F   0  0  0  0  0  0  0  0  0  0  0  0
  -92.6109   26.5807   -4.6075 C   0  0  0  0  0  0  0  0  0  0  0  0
  -92.9308   26.5930   -5.7176 N   0  0  0  0  0  0  0  0  0  0  0  0
 25 26  1  0  0  0
 26 12  1  0  0  0
 12 13  2  0  0  0
 13 14  1  0  0  0
 14 15  2  0  0  0
 15 18  1  0  0  0
 18 19  2  0  0  0
 19 20  1  0  0  0
 20 21  2  0  0  0
 21 22  1  0  0  0
 22 23  2  0  0  0
 23 24  1  0  0  0
 15 16  1  0  0  0
 16 17  2  0  0  0
 17 11  1  0  0  0
 11  1  1  0  0  0
  1  2  2  0  0  0
  2  3  1  0  0  0
  3  4  2  0  0  0
  4  5  1  0  0  0
  5  6  2  0  0  0
  6  7  1  0  0  0
  7  8  2  0  0  0
  8  9  1  0  0  0
  9 10  2  0  0  0
  6 27  1  0  0  0
 27 28  1  0  0  0
 28 29  1  0  0  0
 29 30  2  0  0  0
 29 32  1  0  0  0
 32 33  1  0  0  0
 27 34  1  0  0  0
 34 35  3  0  0  0
 17 12  1  0  0  0
 10  1  1  0  0  0
 23 18  1  0  0  0
 10  4  1  0  0  0
 28 31  1  0  0  0
M  END
> <minimizedAffinity>
-9.12834

> <CNNscore>
0.0704431012

> <CNNaffinity>
6.5052008629

> <CNN_VS>
0.4582465291

> <CNNaffinity_variance>
0.1906925142

$$$$
[H]OC(=O)c1c([H])nc([H])c2c(Sc3c([H])c([H])c([H])c(Cl)c3[H])c(C(=O)N([H])[H])nn12


 26 28  0  0  0  0  0  0  0  0999 V2000
  -90.5662   23.0802   -0.5688 C   0  0  0  0  0  0  0  0  0  0  0  0
  -91.4665   22.7306   -1.5006 N   0  0  0  0  0  0  0  0  0  0  0  0
  -91.8191   23.7831   -2.2181 N   0  0  0  0  0  0  0  0  0  0  0  0
  -92.6831   23.9261   -3.2547 C   0  0  0  0  0  0  0  0  0  0  0  0
  -92.8985   25.1378   -3.8623 C   0  0  0  0  0  0  0  0  0  0  0  0
  -92.2225   26.1938   -3.3979 N   0  0  0  0  0  0  0  0  0  0  0  0
  -91.3521   26.1157   -2.3730 C   0  0  0  0  0  0  0  0  0  0  0  0
  -91.1604   24.8805   -1.7856 C   0  0  0  0  0  0  0  0  0  0  0  0
  -90.3649   24.4534   -0.7440 C   0  0  0  0  0  0  0  0  0  0  0  0
  -88.7493   21.5297    0.1126 N   0  0  0  0  0  0  0  0  0  0  0  0
  -89.9208   22.2407    0.4222 C   0  0  0  0  0  0  0  0  0  0  0  0
  -90.4175   22.1530    1.5631 O   0  0  0  0  0  0  0  0  0  0  0  0
  -87.7847   21.7895    0.4594 H   0  0  0  0  0  0  0  0  0  0  0  0
  -88.7463   20.6625   -0.5041 H   0  0  0  0  0  0  0  0  0  0  0  0
  -93.4093   22.7361   -3.7374 C   0  0  0  0  0  0  0  0  0  0  0  0
  -92.7629   21.5497   -4.0099 O   0  0  0  0  0  0  0  0  0  0  0  0
  -94.6533   22.7906   -3.9098 O   0  0  0  0  0  0  0  0  0  0  0  0
  -92.5965   21.2818   -4.9735 H   0  0  0  0  0  0  0  0  0  0  0  0
  -89.2571   25.3477    0.2630 S   0  0  0  0  0  0  0  0  0  0  0  0
  -89.8829   26.4856    1.4249 C   0  0  0  0  0  0  0  0  0  0  0  0
  -90.5682   27.6032    0.9979 C   0  0  0  0  0  0  0  0  0  0  0  0
  -91.1036   28.5159    1.8584 C   0  0  0  0  0  0  0  0  0  0  0  0
  -90.9551   28.3154    3.2162 C   0  0  0  0  0  0  0  0  0  0  0  0
  -90.2748   27.2077    3.7005 C   0  0  0  0  0  0  0  0  0  0  0  0
  -90.0823   26.9467    5.4227 Cl  0  0  0  0  0  0  0  0  0  0  0  0
  -89.7526   26.3161    2.8065 C   0  0  0  0  0  0  0  0  0  0  0  0
 10 11  1  0  0  0
 11 12  2  0  0  0
 11  1  1  0  0  0
  1  2  2  0  0  0
  2  3  1  0  0  0
  3  4  1  0  0  0
  4  5  2  0  0  0
  5  6  1  0  0  0
  6  7  2  0  0  0
  7  8  1  0  0  0
  8  9  2  0  0  0
  9 19  1  0  0  0
 19 20  1  0  0  0
 20 21  2  0  0  0
 21 22  1  0  0  0
 22 23  2  0  0  0
 23 24  1  0  0  0
 24 25  1  0  0  0
 24 26  2  0  0  0
  4 15  1  0  0  0
 15 16  1  0  0  0
 15 17  2  0  0  0
  9  1  1  0  0  0
 26 20  1  0  0  0
  8  3  1  0  0  0
 10 13  1  0  0  0
 10 14  1  0  0  0
 16 18  1  0  0  0
M  END
> <minimizedAffinity>
-6.44024

> <CNNscore>
0.3287288547

> <CNNaffinity>
5.2621865273

> <CNN_VS>
1.7298325300

> <CNNaffinity_variance>
0.0403081775

$$$$
[H]OC(=O)c1c([H])nc([H])c2c(Sc3c([H])c([H])c([H])c(Cl)c3[H])c(C(=O)N([H])[H])nn12


 26 28  0  0  0  0  0  0  0  0999 V2000
  -84.9699   31.3975    0.4634 C   0  0  0  0  0  0  0  0  0  0  0  0
  -84.2282   30.4642    1.0794 N   0  0  0  0  0  0  0  0  0  0  0  0
  -84.9573   29.3924    1.3370 N   0  0  0  0  0  0  0  0  0  0  0  0
  -84.6555   28.2121    1.9346 C   0  0  0  0  0  0  0  0  0  0  0  0
  -85.5883   27.2189    2.0995 C   0  0  0  0  0  0  0  0  0  0  0  0
  -86.8256   27.4485    1.6478 N   0  0  0  0  0  0  0  0  0  0  0  0
  -87.1864   28.5985    1.0466 C   0  0  0  0  0  0  0  0  0  0  0  0
  -86.2218   29.5757    0.8977 C   0  0  0  0  0  0  0  0  0  0  0  0
  -86.2463   30.8375    0.3434 C   0  0  0  0  0  0  0  0  0  0  0  0
  -83.2115   33.0257   -0.1899 N   0  0  0  0  0  0  0  0  0  0  0  0
  -84.5672   32.7139    0.0067 C   0  0  0  0  0  0  0  0  0  0  0  0
  -85.4411   33.5765   -0.2126 O   0  0  0  0  0  0  0  0  0  0  0  0
  -82.7538   33.1252   -1.1380 H   0  0  0  0  0  0  0  0  0  0  0  0
  -82.5339   33.1875    0.6145 H   0  0  0  0  0  0  0  0  0  0  0  0
  -83.2785   27.9982    2.4191 C   0  0  0  0  0  0  0  0  0  0  0  0
  -82.9225   26.8697    3.1258 O   0  0  0  0  0  0  0  0  0  0  0  0
  -82.3939   28.8610    2.1884 O   0  0  0  0  0  0  0  0  0  0  0  0
  -82.7841   26.9315    4.1283 H   0  0  0  0  0  0  0  0  0  0  0  0
  -87.5564   31.7085   -0.4089 S   0  0  0  0  0  0  0  0  0  0  0  0
  -87.7188   31.6816   -2.1437 C   0  0  0  0  0  0  0  0  0  0  0  0
  -87.7653   30.4782   -2.8150 C   0  0  0  0  0  0  0  0  0  0  0  0
  -87.9171   30.3914   -4.1676 C   0  0  0  0  0  0  0  0  0  0  0  0
  -88.0295   31.5567   -4.8995 C   0  0  0  0  0  0  0  0  0  0  0  0
  -87.9894   32.7946   -4.2748 C   0  0  0  0  0  0  0  0  0  0  0  0
  -88.1314   34.2778   -5.1972 Cl  0  0  0  0  0  0  0  0  0  0  0  0
  -87.8359   32.8399   -2.9178 C   0  0  0  0  0  0  0  0  0  0  0  0
 10 11  1  0  0  0
 11 12  2  0  0  0
 11  1  1  0  0  0
  1  2  2  0  0  0
  2  3  1  0  0  0
  3  4  1  0  0  0
  4  5  2  0  0  0
  5  6  1  0  0  0
  6  7  2  0  0  0
  7  8  1  0  0  0
  8  9  2  0  0  0
  9 19  1  0  0  0
 19 20  1  0  0  0
 20 21  2  0  0  0
 21 22  1  0  0  0
 22 23  2  0  0  0
 23 24  1  0  0  0
 24 25  1  0  0  0
 24 26  2  0  0  0
  4 15  1  0  0  0
 15 16  1  0  0  0
 15 17  2  0  0  0
  9  1  1  0  0  0
 26 20  1  0  0  0
  8  3  1  0  0  0
 10 13  1  0  0  0
 10 14  1  0  0  0
 16 18  1  0  0  0
M  END
> <minimizedAffinity>
-7.98334

> <CNNscore>
0.3208366632

> <CNNaffinity>
6.0901527405

> <CNN_VS>
1.9539443254

> <CNNaffinity_variance>
0.0987085551

$$$$
[H]OC(=O)c1c([H])nc([H])c2c(Sc3c([H])c([H])c([H])c(Cl)c3[H])c(C(=O)N([H])[H])nn12


 26 28  0  0  0  0  0  0  0  0999 V2000
  -89.2331   30.6135   -3.4803 C   0  0  0  0  0  0  0  0  0  0  0  0
  -89.9559   29.4854   -3.4043 N   0  0  0  0  0  0  0  0  0  0  0  0
  -90.3172   29.2532   -2.1544 N   0  0  0  0  0  0  0  0  0  0  0  0
  -91.0428   28.2548   -1.5905 C   0  0  0  0  0  0  0  0  0  0  0  0
  -91.3016   28.2130   -0.2433 C   0  0  0  0  0  0  0  0  0  0  0  0
  -90.8111   29.1999    0.5137 N   0  0  0  0  0  0  0  0  0  0  0  0
  -90.0843   30.2175    0.0133 C   0  0  0  0  0  0  0  0  0  0  0  0
  -89.8434   30.2271   -1.3466 C   0  0  0  0  0  0  0  0  0  0  0  0
  -89.1563   31.0942   -2.1688 C   0  0  0  0  0  0  0  0  0  0  0  0
  -89.3159   32.2496   -5.3475 N   0  0  0  0  0  0  0  0  0  0  0  0
  -88.6433   31.2302   -4.6531 C   0  0  0  0  0  0  0  0  0  0  0  0
  -87.5234   30.8458   -5.0455 O   0  0  0  0  0  0  0  0  0  0  0  0
  -89.0479   33.2720   -5.3131 H   0  0  0  0  0  0  0  0  0  0  0  0
  -90.1591   32.0649   -5.9698 H   0  0  0  0  0  0  0  0  0  0  0  0
  -91.5664   27.1847   -2.4607 C   0  0  0  0  0  0  0  0  0  0  0  0
  -90.8785   26.7489   -3.5727 O   0  0  0  0  0  0  0  0  0  0  0  0
  -92.6699   26.6454   -2.1930 O   0  0  0  0  0  0  0  0  0  0  0  0
  -91.1902   27.0318   -4.4951 H   0  0  0  0  0  0  0  0  0  0  0  0
  -88.2993   32.5638   -1.7856 S   0  0  0  0  0  0  0  0  0  0  0  0
  -86.7017   32.4692   -1.0961 C   0  0  0  0  0  0  0  0  0  0  0  0
  -85.7179   33.3426   -1.5090 C   0  0  0  0  0  0  0  0  0  0  0  0
  -84.4570   33.3354   -0.9891 C   0  0  0  0  0  0  0  0  0  0  0  0
  -84.1489   32.4155   -0.0068 C   0  0  0  0  0  0  0  0  0  0  0  0
  -85.1008   31.5137    0.4458 C   0  0  0  0  0  0  0  0  0  0  0  0
  -84.7169   30.3433    1.6922 Cl  0  0  0  0  0  0  0  0  0  0  0  0
  -86.3528   31.5524   -0.1000 C   0  0  0  0  0  0  0  0  0  0  0  0
 10 11  1  0  0  0
 11 12  2  0  0  0
 11  1  1  0  0  0
  1  2  2  0  0  0
  2  3  1  0  0  0
  3  4  1  0  0  0
  4  5  2  0  0  0
  5  6  1  0  0  0
  6  7  2  0  0  0
  7  8  1  0  0  0
  8  9  2  0  0  0
  9 19  1  0  0  0
 19 20  1  0  0  0
 20 21  2  0  0  0
 21 22  1  0  0  0
 22 23  2  0  0  0
 23 24  1  0  0  0
 24 25  1  0  0  0
 24 26  2  0  0  0
  4 15  1  0  0  0
 15 16  1  0  0  0
 15 17  2  0  0  0
  9  1  1  0  0  0
 26 20  1  0  0  0
  8  3  1  0  0  0
 10 13  1  0  0  0
 10 14  1  0  0  0
 16 18  1  0  0  0
M  END
> <minimizedAffinity>
-7.34565

> <CNNscore>
0.2645573318

> <CNNaffinity>
5.5648565292

> <CNN_VS>
1.4722236395

> <CNNaffinity_variance>
0.1826705784

$$$$
[H]OC(=O)c1c([H])nc([H])c2c(Sc3c([H])c([H])c([H])c(Cl)c3[H])c(C(=O)N([H])[H])nn12


 26 28  0  0  0  0  0  0  0  0999 V2000
  -87.0893   29.5152   -0.4111 C   0  0  0  0  0  0  0  0  0  0  0  0
  -86.4953   30.7122   -0.5340 N   0  0  0  0  0  0  0  0  0  0  0  0
  -85.3673   30.7395    0.1542 N   0  0  0  0  0  0  0  0  0  0  0  0
  -84.4366   31.7109    0.3322 C   0  0  0  0  0  0  0  0  0  0  0  0
  -83.3187   31.5166    1.1044 C   0  0  0  0  0  0  0  0  0  0  0  0
  -83.1673   30.3232    1.6879 N   0  0  0  0  0  0  0  0  0  0  0  0
  -84.0554   29.3200    1.5496 C   0  0  0  0  0  0  0  0  0  0  0  0
  -85.1685   29.5511    0.7653 C   0  0  0  0  0  0  0  0  0  0  0  0
  -86.2474   28.7666    0.4184 C   0  0  0  0  0  0  0  0  0  0  0  0
  -88.3485   28.3769   -2.2244 N   0  0  0  0  0  0  0  0  0  0  0  0
  -88.3357   29.0616   -0.9978 C   0  0  0  0  0  0  0  0  0  0  0  0
  -89.4075   29.2857   -0.4002 O   0  0  0  0  0  0  0  0  0  0  0  0
  -88.5232   27.3389   -2.3264 H   0  0  0  0  0  0  0  0  0  0  0  0
  -88.1806   28.8605   -3.1573 H   0  0  0  0  0  0  0  0  0  0  0  0
  -84.6408   33.0137   -0.3293 C   0  0  0  0  0  0  0  0  0  0  0  0
  -85.8792   33.6164   -0.3832 O   0  0  0  0  0  0  0  0  0  0  0  0
  -83.6672   33.6028   -0.8632 O   0  0  0  0  0  0  0  0  0  0  0  0
  -86.4037   33.6027   -1.2507 H   0  0  0  0  0  0  0  0  0  0  0  0
  -86.6272   27.1218    0.8562 S   0  0  0  0  0  0  0  0  0  0  0  0
  -88.1207   26.7790    1.6860 C   0  0  0  0  0  0  0  0  0  0  0  0
  -88.9733   25.8094    1.2024 C   0  0  0  0  0  0  0  0  0  0  0  0
  -90.1428   25.4778    1.8209 C   0  0  0  0  0  0  0  0  0  0  0  0
  -90.4911   26.1394    2.9815 C   0  0  0  0  0  0  0  0  0  0  0  0
  -89.6700   27.1235    3.5121 C   0  0  0  0  0  0  0  0  0  0  0  0
  -90.1056   27.9674    4.9848 Cl  0  0  0  0  0  0  0  0  0  0  0  0
  -88.5066   27.4272    2.8631 C   0  0  0  0  0  0  0  0  0  0  0  0
 10 11  1  0  0  0
 11 12  2  0  0  0
 11  1  1  0  0  0
  1  2  2  0  0  0
  2  3  1  0  0  0
  3  4  1  0  0  0
  4  5  2  0  0  0
  5  6  1  0  0  0
  6  7  2  0  0  0
  7  8  1  0  0  0
  8  9  2  0  0  0
  9 19  1  0  0  0
 19 20  1  0  0  0
 20 21  2  0  0  0
 21 22  1  0  0  0
 22 23  2  0  0  0
 23 24  1  0  0  0
 24 25  1  0  0  0
 24 26  2  0  0  0
  4 15  1  0  0  0
 15 16  1  0  0  0
 15 17  2  0  0  0
  9  1  1  0  0  0
 26 20  1  0  0  0
  8  3  1  0  0  0
 10 13  1  0  0  0
 10 14  1  0  0  0
 16 18  1  0  0  0
M  END
> <minimizedAffinity>
-7.25986

> <CNNscore>
0.2146629244

> <CNNaffinity>
5.7977929115

> <CNN_VS>
1.2445712090

> <CNNaffinity_variance>
0.2377409488

$$$$
[H]OC(=O)c1c([H])nc([H])c2c(Sc3c([H])c([H])c([H])c(Cl)c3[H])c(C(=O)N([H])[H])nn12


 26 28  0  0  0  0  0  0  0  0999 V2000
  -88.2615   28.7265   -1.6659 C   0  0  0  0  0  0  0  0  0  0  0  0
  -88.5032   29.5392   -2.7062 N   0  0  0  0  0  0  0  0  0  0  0  0
  -88.0650   30.7593   -2.4491 N   0  0  0  0  0  0  0  0  0  0  0  0
  -88.0823   31.9022   -3.1805 C   0  0  0  0  0  0  0  0  0  0  0  0
  -87.5593   33.0792   -2.7061 C   0  0  0  0  0  0  0  0  0  0  0  0
  -87.0222   33.0707   -1.4818 N   0  0  0  0  0  0  0  0  0  0  0  0
  -86.9752   31.9692   -0.7080 C   0  0  0  0  0  0  0  0  0  0  0  0
  -87.5111   30.8027   -1.2176 C   0  0  0  0  0  0  0  0  0  0  0  0
  -87.6272   29.5267   -0.7096 C   0  0  0  0  0  0  0  0  0  0  0  0
  -87.5718   26.3406   -1.6295 N   0  0  0  0  0  0  0  0  0  0  0  0
  -88.5765   27.3174   -1.5292 C   0  0  0  0  0  0  0  0  0  0  0  0
  -89.7575   26.9747   -1.3198 O   0  0  0  0  0  0  0  0  0  0  0  0
  -87.1798   25.8016   -0.8085 H   0  0  0  0  0  0  0  0  0  0  0  0
  -87.1236   26.0664   -2.5549 H   0  0  0  0  0  0  0  0  0  0  0  0
  -88.6841   31.8693   -4.5270 C   0  0  0  0  0  0  0  0  0  0  0  0
  -88.4513   30.8312   -5.4032 O   0  0  0  0  0  0  0  0  0  0  0  0
  -89.4327   32.8077   -4.8999 O   0  0  0  0  0  0  0  0  0  0  0  0
  -87.8172   30.9682   -6.1824 H   0  0  0  0  0  0  0  0  0  0  0  0
  -87.1206   28.8797    0.8285 S   0  0  0  0  0  0  0  0  0  0  0  0
  -85.4515   29.0201    1.3094 C   0  0  0  0  0  0  0  0  0  0  0  0
  -84.8802   28.0561    2.1127 C   0  0  0  0  0  0  0  0  0  0  0  0
  -83.5734   28.0965    2.5010 C   0  0  0  0  0  0  0  0  0  0  0  0
  -82.7856   29.1465    2.0732 C   0  0  0  0  0  0  0  0  0  0  0  0
  -83.3093   30.1436    1.2634 C   0  0  0  0  0  0  0  0  0  0  0  0
  -82.3154   31.4793    0.7166 Cl  0  0  0  0  0  0  0  0  0  0  0  0
  -84.6232   30.0676    0.8959 C   0  0  0  0  0  0  0  0  0  0  0  0
 10 11  1  0  0  0
 11 12  2  0  0  0
 11  1  1  0  0  0
  1  2  2  0  0  0
  2  3  1  0  0  0
  3  4  1  0  0  0
  4  5  2  0  0  0
  5  6  1  0  0  0
  6  7  2  0  0  0
  7  8  1  0  0  0
  8  9  2  0  0  0
  9 19  1  0  0  0
 19 20  1  0  0  0
 20 21  2  0  0  0
 21 22  1  0  0  0
 22 23  2  0  0  0
 23 24  1  0  0  0
 24 25  1  0  0  0
 24 26  2  0  0  0
  4 15  1  0  0  0
 15 16  1  0  0  0
 15 17  2  0  0  0
  9  1  1  0  0  0
 26 20  1  0  0  0
  8  3  1  0  0  0
 10 13  1  0  0  0
 10 14  1  0  0  0
 16 18  1  0  0  0
M  END
> <minimizedAffinity>
-8.64999

> <CNNscore>
0.1700471193

> <CNNaffinity>
5.4870958328

> <CNN_VS>
0.9330648184

> <CNNaffinity_variance>
0.5525088906

$$$$
[H]OC(=O)c1c([H])nc([H])c2c(Sc3c([H])c([H])c([H])c(Cl)c3[H])c(C(=O)N([H])[H])nn12


 26 28  0  0  0  0  0  0  0  0999 V2000
  -89.0574   26.1059    0.3931 C   0  0  0  0  0  0  0  0  0  0  0  0
  -89.5488   25.1832    1.2346 N   0  0  0  0  0  0  0  0  0  0  0  0
  -89.7154   25.7007    2.4392 N   0  0  0  0  0  0  0  0  0  0  0  0
  -90.1770   25.1687    3.5992 C   0  0  0  0  0  0  0  0  0  0  0  0
  -90.2670   25.9051    4.7539 C   0  0  0  0  0  0  0  0  0  0  0  0
  -89.8810   27.1843    4.7058 N   0  0  0  0  0  0  0  0  0  0  0  0
  -89.4144   27.7690    3.5858 C   0  0  0  0  0  0  0  0  0  0  0  0
  -89.3375   26.9978    2.4426 C   0  0  0  0  0  0  0  0  0  0  0  0
  -88.9192   27.2693    1.1576 C   0  0  0  0  0  0  0  0  0  0  0  0
  -87.3916   25.8933   -1.4371 N   0  0  0  0  0  0  0  0  0  0  0  0
  -88.7289   25.9618   -1.0122 C   0  0  0  0  0  0  0  0  0  0  0  0
  -89.6509   25.8986   -1.8500 O   0  0  0  0  0  0  0  0  0  0  0  0
  -86.9153   25.0088   -1.7676 H   0  0  0  0  0  0  0  0  0  0  0  0
  -86.7484   26.7408   -1.4580 H   0  0  0  0  0  0  0  0  0  0  0  0
  -90.5932   23.7534    3.6100 C   0  0  0  0  0  0  0  0  0  0  0  0
  -89.6807   22.7255    3.5072 O   0  0  0  0  0  0  0  0  0  0  0  0
  -91.8112   23.4611    3.7155 O   0  0  0  0  0  0  0  0  0  0  0  0
  -89.5906   22.2238    2.6308 H   0  0  0  0  0  0  0  0  0  0  0  0
  -88.3063   28.7475    0.4646 S   0  0  0  0  0  0  0  0  0  0  0  0
  -86.6683   29.2374    0.8017 C   0  0  0  0  0  0  0  0  0  0  0  0
  -86.2178   30.4734    0.3892 C   0  0  0  0  0  0  0  0  0  0  0  0
  -84.9562   30.9238    0.6453 C   0  0  0  0  0  0  0  0  0  0  0  0
  -84.0901   30.1098    1.3478 C   0  0  0  0  0  0  0  0  0  0  0  0
  -84.4916   28.8566    1.7867 C   0  0  0  0  0  0  0  0  0  0  0  0
  -83.3979   27.8180    2.6788 Cl  0  0  0  0  0  0  0  0  0  0  0  0
  -85.7636   28.4412    1.5102 C   0  0  0  0  0  0  0  0  0  0  0  0
 10 11  1  0  0  0
 11 12  2  0  0  0
 11  1  1  0  0  0
  1  2  2  0  0  0
  2  3  1  0  0  0
  3  4  1  0  0  0
  4  5  2  0  0  0
  5  6  1  0  0  0
  6  7  2  0  0  0
  7  8  1  0  0  0
  8  9  2  0  0  0
  9 19  1  0  0  0
 19 20  1  0  0  0
 20 21  2  0  0  0
 21 22  1  0  0  0
 22 23  2  0  0  0
 23 24  1  0  0  0
 24 25  1  0  0  0
 24 26  2  0  0  0
  4 15  1  0  0  0
 15 16  1  0  0  0
 15 17  2  0  0  0
  9  1  1  0  0  0
 26 20  1  0  0  0
  8  3  1  0  0  0
 10 13  1  0  0  0
 10 14  1  0  0  0
 16 18  1  0  0  0
M  END
> <minimizedAffinity>
-8.40470

> <CNNscore>
0.1546068490

> <CNNaffinity>
5.3895120621

> <CNN_VS>
0.8332554698

> <CNNaffinity_variance>
0.5379249454

$$$$
[H]OC(=O)c1c([H])nc([H])c2c(Sc3c([H])c([H])c([H])c(Cl)c3[H])c(C(=O)N([H])[H])nn12


 26 28  0  0  0  0  0  0  0  0999 V2000
  -88.9903   26.5165    0.2828 C   0  0  0  0  0  0  0  0  0  0  0  0
  -89.7410   25.6162    0.9361 N   0  0  0  0  0  0  0  0  0  0  0  0
  -89.8923   25.9728    2.1997 N   0  0  0  0  0  0  0  0  0  0  0  0
  -90.5559   25.3941    3.2324 C   0  0  0  0  0  0  0  0  0  0  0  0
  -90.5808   25.9511    4.4865 C   0  0  0  0  0  0  0  0  0  0  0  0
  -89.9220   27.1003    4.6683 N   0  0  0  0  0  0  0  0  0  0  0  0
  -89.2455   27.7227    3.6839 C   0  0  0  0  0  0  0  0  0  0  0  0
  -89.2420   27.1334    2.4347 C   0  0  0  0  0  0  0  0  0  0  0  0
  -88.6669   27.4901    1.2339 C   0  0  0  0  0  0  0  0  0  0  0  0
  -87.3848   25.8967   -1.5082 N   0  0  0  0  0  0  0  0  0  0  0  0
  -88.5830   26.5120   -1.1091 C   0  0  0  0  0  0  0  0  0  0  0  0
  -89.3109   27.0637   -1.9587 O   0  0  0  0  0  0  0  0  0  0  0  0
  -87.3305   24.9767   -2.0268 H   0  0  0  0  0  0  0  0  0  0  0  0
  -86.4270   26.3182   -1.3145 H   0  0  0  0  0  0  0  0  0  0  0  0
  -91.2705   24.1264    2.9901 C   0  0  0  0  0  0  0  0  0  0  0  0
  -91.9789   23.9004    1.8296 O   0  0  0  0  0  0  0  0  0  0  0  0
  -91.2416   23.2171    3.8576 O   0  0  0  0  0  0  0  0  0  0  0  0
  -92.9916   23.9450    1.8462 H   0  0  0  0  0  0  0  0  0  0  0  0
  -87.6893   28.8748    0.8241 S   0  0  0  0  0  0  0  0  0  0  0  0
  -86.0231   28.9281    1.3320 C   0  0  0  0  0  0  0  0  0  0  0  0
  -85.5039   27.9125    2.1065 C   0  0  0  0  0  0  0  0  0  0  0  0
  -84.2024   27.8844    2.5134 C   0  0  0  0  0  0  0  0  0  0  0  0
  -83.3659   28.9156    2.1353 C   0  0  0  0  0  0  0  0  0  0  0  0
  -83.8362   29.9625    1.3561 C   0  0  0  0  0  0  0  0  0  0  0  0
  -82.7803   31.2747    0.8723 Cl  0  0  0  0  0  0  0  0  0  0  0  0
  -85.1464   29.9546    0.9686 C   0  0  0  0  0  0  0  0  0  0  0  0
 10 11  1  0  0  0
 11 12  2  0  0  0
 11  1  1  0  0  0
  1  2  2  0  0  0
  2  3  1  0  0  0
  3  4  1  0  0  0
  4  5  2  0  0  0
  5  6  1  0  0  0
  6  7  2  0  0  0
  7  8  1  0  0  0
  8  9  2  0  0  0
  9 19  1  0  0  0
 19 20  1  0  0  0
 20 21  2  0  0  0
 21 22  1  0  0  0
 22 23  2  0  0  0
 23 24  1  0  0  0
 24 25  1  0  0  0
 24 26  2  0  0  0
  4 15  1  0  0  0
 15 16  1  0  0  0
 15 17  2  0  0  0
  9  1  1  0  0  0
 26 20  1  0  0  0
  8  3  1  0  0  0
 10 13  1  0  0  0
 10 14  1  0  0  0
 16 18  1  0  0  0
M  END
> <minimizedAffinity>
-8.16177

> <CNNscore>
0.1511354148

> <CNNaffinity>
5.4138884544

> <CNN_VS>
0.8182302713

> <CNNaffinity_variance>
0.4500592649

$$$$
[H]OC(=O)c1c([H])nc([H])c2c(Sc3c([H])c([H])c([H])c(Cl)c3[H])c(C(=O)N([H])[H])nn12


 26 28  0  0  0  0  0  0  0  0999 V2000
  -88.3821   31.5754   -2.2215 C   0  0  0  0  0  0  0  0  0  0  0  0
  -89.2621   30.5925   -2.4671 N   0  0  0  0  0  0  0  0  0  0  0  0
  -89.1467   29.6347   -1.5638 N   0  0  0  0  0  0  0  0  0  0  0  0
  -89.8066   28.4607   -1.3970 C   0  0  0  0  0  0  0  0  0  0  0  0
  -89.5167   27.6014   -0.3669 C   0  0  0  0  0  0  0  0  0  0  0  0
  -88.5491   27.9573    0.4844 N   0  0  0  0  0  0  0  0  0  0  0  0
  -87.8586   29.1082    0.3719 C   0  0  0  0  0  0  0  0  0  0  0  0
  -88.1771   29.9486   -0.6768 C   0  0  0  0  0  0  0  0  0  0  0  0
  -87.6841   31.1716   -1.0784 C   0  0  0  0  0  0  0  0  0  0  0  0
  -87.2527   32.8616   -4.0216 N   0  0  0  0  0  0  0  0  0  0  0  0
  -88.1729   32.8052   -2.9615 C   0  0  0  0  0  0  0  0  0  0  0  0
  -88.8219   33.8231   -2.6475 O   0  0  0  0  0  0  0  0  0  0  0  0
  -87.5217   32.9008   -5.0435 H   0  0  0  0  0  0  0  0  0  0  0  0
  -86.1992   32.8690   -3.8717 H   0  0  0  0  0  0  0  0  0  0  0  0
  -90.8679   28.1051   -2.3582 C   0  0  0  0  0  0  0  0  0  0  0  0
  -90.8043   28.4777   -3.6836 O   0  0  0  0  0  0  0  0  0  0  0  0
  -91.8646   27.4436   -1.9720 O   0  0  0  0  0  0  0  0  0  0  0  0
  -91.3837   29.2404   -4.0161 H   0  0  0  0  0  0  0  0  0  0  0  0
  -86.4233   32.1569   -0.3851 S   0  0  0  0  0  0  0  0  0  0  0  0
  -85.0119   31.3911    0.2920 C   0  0  0  0  0  0  0  0  0  0  0  0
  -83.7552   31.8793    0.0033 C   0  0  0  0  0  0  0  0  0  0  0  0
  -82.6152   31.3400    0.5226 C   0  0  0  0  0  0  0  0  0  0  0  0
  -82.7202   30.2586    1.3744 C   0  0  0  0  0  0  0  0  0  0  0  0
  -83.9600   29.7275    1.6988 C   0  0  0  0  0  0  0  0  0  0  0  0
  -84.1009   28.3551    2.7793 Cl  0  0  0  0  0  0  0  0  0  0  0  0
  -85.0787   30.2957    1.1580 C   0  0  0  0  0  0  0  0  0  0  0  0
 10 11  1  0  0  0
 11 12  2  0  0  0
 11  1  1  0  0  0
  1  2  2  0  0  0
  2  3  1  0  0  0
  3  4  1  0  0  0
  4  5  2  0  0  0
  5  6  1  0  0  0
  6  7  2  0  0  0
  7  8  1  0  0  0
  8  9  2  0  0  0
  9 19  1  0  0  0
 19 20  1  0  0  0
 20 21  2  0  0  0
 21 22  1  0  0  0
 22 23  2  0  0  0
 23 24  1  0  0  0
 24 25  1  0  0  0
 24 26  2  0  0  0
  4 15  1  0  0  0
 15 16  1  0  0  0
 15 17  2  0  0  0
  9  1  1  0  0  0
 26 20  1  0  0  0
  8  3  1  0  0  0
 10 13  1  0  0  0
 10 14  1  0  0  0
 16 18  1  0  0  0
M  END
> <minimizedAffinity>
-7.52220

> <CNNscore>
0.1378503442

> <CNNaffinity>
5.5804758072

> <CNN_VS>
0.7692705393

> <CNNaffinity_variance>
0.2920395136

$$$$
[H]OC(=O)c1c([H])nc([H])c2c(Sc3c([H])c([H])c([H])c(Cl)c3[H])c(C(=O)N([H])[H])nn12


 26 28  0  0  0  0  0  0  0  0999 V2000
  -87.4111   27.0233    1.2654 C   0  0  0  0  0  0  0  0  0  0  0  0
  -86.1396   27.1588    1.6726 N   0  0  0  0  0  0  0  0  0  0  0  0
  -85.7307   28.4037    1.4996 N   0  0  0  0  0  0  0  0  0  0  0  0
  -84.5461   29.0134    1.7571 C   0  0  0  0  0  0  0  0  0  0  0  0
  -84.3386   30.3442    1.4929 C   0  0  0  0  0  0  0  0  0  0  0  0
  -85.3528   31.0376    0.9655 N   0  0  0  0  0  0  0  0  0  0  0  0
  -86.5513   30.4895    0.6876 C   0  0  0  0  0  0  0  0  0  0  0  0
  -86.7243   29.1478    0.9663 C   0  0  0  0  0  0  0  0  0  0  0  0
  -87.7926   28.2907    0.8122 C   0  0  0  0  0  0  0  0  0  0  0  0
  -88.1431   24.8749    0.2564 N   0  0  0  0  0  0  0  0  0  0  0  0
  -88.2410   25.8340    1.2783 C   0  0  0  0  0  0  0  0  0  0  0  0
  -89.0507   25.6662    2.2122 O   0  0  0  0  0  0  0  0  0  0  0  0
  -87.6859   23.9280    0.3689 H   0  0  0  0  0  0  0  0  0  0  0  0
  -88.5283   25.0334   -0.7228 H   0  0  0  0  0  0  0  0  0  0  0  0
  -83.4522   28.2129    2.3394 C   0  0  0  0  0  0  0  0  0  0  0  0
  -83.6938   27.0495    3.0379 O   0  0  0  0  0  0  0  0  0  0  0  0
  -82.2609   28.5899    2.2029 O   0  0  0  0  0  0  0  0  0  0  0  0
  -83.6249   27.0511    4.0494 H   0  0  0  0  0  0  0  0  0  0  0  0
  -89.3912   28.5901    0.1829 S   0  0  0  0  0  0  0  0  0  0  0  0
  -89.5819   29.5889   -1.2323 C   0  0  0  0  0  0  0  0  0  0  0  0
  -90.7424   30.3097   -1.4183 C   0  0  0  0  0  0  0  0  0  0  0  0
  -90.9406   31.1283   -2.4911 C   0  0  0  0  0  0  0  0  0  0  0  0
  -89.9380   31.2427   -3.4333 C   0  0  0  0  0  0  0  0  0  0  0  0
  -88.7499   30.5401   -3.2954 C   0  0  0  0  0  0  0  0  0  0  0  0
  -87.4730   30.6803   -4.4874 Cl  0  0  0  0  0  0  0  0  0  0  0  0
  -88.5895   29.7301   -2.2068 C   0  0  0  0  0  0  0  0  0  0  0  0
 10 11  1  0  0  0
 11 12  2  0  0  0
 11  1  1  0  0  0
  1  2  2  0  0  0
  2  3  1  0  0  0
  3  4  1  0  0  0
  4  5  2  0  0  0
  5  6  1  0  0  0
  6  7  2  0  0  0
  7  8  1  0  0  0
  8  9  2  0  0  0
  9 19  1  0  0  0
 19 20  1  0  0  0
 20 21  2  0  0  0
 21 22  1  0  0  0
 22 23  2  0  0  0
 23 24  1  0  0  0
 24 25  1  0  0  0
 24 26  2  0  0  0
  4 15  1  0  0  0
 15 16  1  0  0  0
 15 17  2  0  0  0
  9  1  1  0  0  0
 26 20  1  0  0  0
  8  3  1  0  0  0
 10 13  1  0  0  0
 10 14  1  0  0  0
 16 18  1  0  0  0
M  END
> <minimizedAffinity>
-7.11703

> <CNNscore>
0.1185873449

> <CNNaffinity>
5.6364789009

> <CNN_VS>
0.6684150696

> <CNNaffinity_variance>
0.1045729071

$$$$
[H]OC(=O)c1c([H])c([H])c(N2C([H])([H])C([H])([H])N(c3c([H])c([H])c(F)c([H])c3[H])C([H])([H])[C@@]2([H])C([H])(C([H])([H])[H])C([H])([H])[H])c([H])c1C(F)(F)F


 30 32  0  0  0  0  0  0  0  0999 V2000
  -89.6847   29.2062   -0.2923 C   0  0  0  0  0  0  0  0  0  0  0  0
  -88.6763   30.3072   -0.1977 C   0  0  0  0  0  0  0  0  0  0  0  0
  -87.3865   29.8270   -0.7136 N   0  0  0  0  0  0  0  0  0  0  0  0
  -87.3387   28.7790   -1.6728 C   0  0  0  0  0  0  0  0  0  0  0  0
  -88.1128   27.5571   -1.2337 C   0  0  0  0  0  0  0  0  0  0  0  0
  -89.1280   27.9019   -0.2507 N   0  0  0  0  0  0  0  0  0  0  0  0
  -86.1880   30.4507   -0.2477 C   0  0  0  0  0  0  0  0  0  0  0  0
  -85.9426   31.7939   -0.2293 C   0  0  0  0  0  0  0  0  0  0  0  0
  -84.7412   32.3216    0.2638 C   0  0  0  0  0  0  0  0  0  0  0  0
  -83.7535   31.5066    0.7519 C   0  0  0  0  0  0  0  0  0  0  0  0
  -82.5785   31.9805    1.2384 F   0  0  0  0  0  0  0  0  0  0  0  0
  -84.0086   30.1530    0.7294 C   0  0  0  0  0  0  0  0  0  0  0  0
  -85.1742   29.6191    0.2527 C   0  0  0  0  0  0  0  0  0  0  0  0
  -89.4794   26.8922    0.6853 C   0  0  0  0  0  0  0  0  0  0  0  0
  -89.7082   25.5767    0.2751 C   0  0  0  0  0  0  0  0  0  0  0  0
  -90.0381   24.5937    1.1532 C   0  0  0  0  0  0  0  0  0  0  0  0
  -90.1752   24.8196    2.5378 C   0  0  0  0  0  0  0  0  0  0  0  0
  -89.9543   26.1054    2.9574 C   0  0  0  0  0  0  0  0  0  0  0  0
  -89.6124   27.1095    2.0252 C   0  0  0  0  0  0  0  0  0  0  0  0
  -90.5204   23.7087    3.3937 C   0  0  0  0  0  0  0  0  0  0  0  0
  -89.7116   22.7922    3.9933 O   0  0  0  0  0  0  0  0  0  0  0  0
  -91.7717   23.5343    3.6419 O   0  0  0  0  0  0  0  0  0  0  0  0
  -89.8107   22.4783    4.9636 H   0  0  0  0  0  0  0  0  0  0  0  0
  -90.0775   26.4607    4.3893 C   0  0  0  0  0  0  0  0  0  0  0  0
  -89.5516   27.7777    4.5137 F   0  0  0  0  0  0  0  0  0  0  0  0
  -89.2611   25.7234    5.2170 F   0  0  0  0  0  0  0  0  0  0  0  0
  -91.3690   26.4815    4.8434 F   0  0  0  0  0  0  0  0  0  0  0  0
  -91.9923   29.1078   -1.2703 C   0  0  0  0  0  0  0  0  0  0  0  0
  -90.5526   29.4625   -1.5084 C   0  0  0  0  0  0  0  0  0  0  0  0
  -90.5045   30.9710   -1.7891 C   0  0  0  0  0  0  0  0  0  0  0  0
 28 29  1  0  0  0
 29 30  1  0  0  0
 29  1  1  0  0  0
  1  2  1  0  0  0
  2  3  1  0  0  0
  3  4  1  0  0  0
  4  5  1  0  0  0
  5  6  1  0  0  0
  6 14  1  0  0  0
 14 15  2  0  0  0
 15 16  1  0  0  0
 16 17  2  0  0  0
 17 20  1  0  0  0
 20 21  1  0  0  0
 20 22  2  0  0  0
 17 18  1  0  0  0
 18 19  2  0  0  0
 18 24  1  0  0  0
 24 25  1  0  0  0
 24 26  1  0  0  0
 24 27  1  0  0  0
  3  7  1  0  0  0
  7  8  2  0  0  0
  8  9  1  0  0  0
  9 10  2  0  0  0
 10 11  1  0  0  0
 10 12  1  0  0  0
 12 13  2  0  0  0
  6  1  1  0  0  0
 19 14  1  0  0  0
 13  7  1  0  0  0
 21 23  1  0  0  0
M  END
> <minimizedAffinity>
-9.26490

> <CNNscore>
0.4795069993

> <CNNaffinity>
6.4899940491

> <CNN_VS>
3.1119976044

> <CNNaffinity_variance>
0.0587593131

$$$$
[H]OC(=O)c1c([H])c([H])c(N2C([H])([H])C([H])([H])N(c3c([H])c([H])c(F)c([H])c3[H])C([H])([H])[C@@]2([H])C([H])(C([H])([H])[H])C([H])([H])[H])c([H])c1C(F)(F)F


 30 32  0  0  0  0  0  0  0  0999 V2000
  -87.8637   30.9973   -2.5210 C   0  0  0  0  0  0  0  0  0  0  0  0
  -88.8091   30.2032   -3.3658 C   0  0  0  0  0  0  0  0  0  0  0  0
  -89.9914   29.8504   -2.5670 N   0  0  0  0  0  0  0  0  0  0  0  0
  -90.3882   30.6616   -1.4692 C   0  0  0  0  0  0  0  0  0  0  0  0
  -89.2607   30.9047   -0.4921 C   0  0  0  0  0  0  0  0  0  0  0  0
  -87.9648   30.7348   -1.1304 N   0  0  0  0  0  0  0  0  0  0  0  0
  -90.7426   28.6905   -2.9317 C   0  0  0  0  0  0  0  0  0  0  0  0
  -91.9426   28.6895   -3.5834 C   0  0  0  0  0  0  0  0  0  0  0  0
  -92.6033   27.4995   -3.9187 C   0  0  0  0  0  0  0  0  0  0  0  0
  -92.0701   26.2769   -3.6044 C   0  0  0  0  0  0  0  0  0  0  0  0
  -92.6794   25.1042   -3.9135 F   0  0  0  0  0  0  0  0  0  0  0  0
  -90.8597   26.2866   -2.9468 C   0  0  0  0  0  0  0  0  0  0  0  0
  -90.1997   27.4367   -2.6113 C   0  0  0  0  0  0  0  0  0  0  0  0
  -86.8941   30.3098   -0.2985 C   0  0  0  0  0  0  0  0  0  0  0  0
  -86.8732   29.0255    0.2504 C   0  0  0  0  0  0  0  0  0  0  0  0
  -85.8564   28.5954    1.0425 C   0  0  0  0  0  0  0  0  0  0  0  0
  -84.7495   29.4035    1.3720 C   0  0  0  0  0  0  0  0  0  0  0  0
  -84.7542   30.6672    0.8418 C   0  0  0  0  0  0  0  0  0  0  0  0
  -85.8226   31.0908    0.0212 C   0  0  0  0  0  0  0  0  0  0  0  0
  -83.7129   28.8544    2.2145 C   0  0  0  0  0  0  0  0  0  0  0  0
  -82.3597   28.9212    2.0793 O   0  0  0  0  0  0  0  0  0  0  0  0
  -84.0965   28.1981    3.2537 O   0  0  0  0  0  0  0  0  0  0  0  0
  -81.7093   29.1164    2.8466 H   0  0  0  0  0  0  0  0  0  0  0  0
  -83.6458   31.6064    1.1267 C   0  0  0  0  0  0  0  0  0  0  0  0
  -83.9352   32.7901    0.3907 F   0  0  0  0  0  0  0  0  0  0  0  0
  -82.4340   31.2095    0.6079 F   0  0  0  0  0  0  0  0  0  0  0  0
  -83.5401   31.9506    2.4477 F   0  0  0  0  0  0  0  0  0  0  0  0
  -86.7751   33.2549   -2.6202 C   0  0  0  0  0  0  0  0  0  0  0  0
  -88.0233   32.4613   -2.8804 C   0  0  0  0  0  0  0  0  0  0  0  0
  -88.2899   32.5302   -4.3907 C   0  0  0  0  0  0  0  0  0  0  0  0
 28 29  1  0  0  0
 29 30  1  0  0  0
 29  1  1  0  0  0
  1  2  1  0  0  0
  2  3  1  0  0  0
  3  4  1  0  0  0
  4  5  1  0  0  0
  5  6  1  0  0  0
  6 14  1  0  0  0
 14 15  2  0  0  0
 15 16  1  0  0  0
 16 17  2  0  0  0
 17 20  1  0  0  0
 20 21  1  0  0  0
 20 22  2  0  0  0
 17 18  1  0  0  0
 18 19  2  0  0  0
 18 24  1  0  0  0
 24 25  1  0  0  0
 24 26  1  0  0  0
 24 27  1  0  0  0
  3  7  1  0  0  0
  7  8  2  0  0  0
  8  9  1  0  0  0
  9 10  2  0  0  0
 10 11  1  0  0  0
 10 12  1  0  0  0
 12 13  2  0  0  0
  6  1  1  0  0  0
 19 14  1  0  0  0
 13  7  1  0  0  0
 21 23  1  0  0  0
M  END
> <minimizedAffinity>
-8.94362

> <CNNscore>
0.2936016917

> <CNNaffinity>
6.2120995522

> <CNN_VS>
1.8238829374

> <CNNaffinity_variance>
0.1916688830

$$$$
[H]OC(=O)c1c([H])c([H])c(N2C([H])([H])C([H])([H])N(c3c([H])c([H])c(F)c([H])c3[H])C([H])([H])[C@@]2([H])C([H])(C([H])([H])[H])C([H])([H])[H])c([H])c1C(F)(F)F


 30 32  0  0  0  0  0  0  0  0999 V2000
  -89.4853   30.2305   -1.1733 C   0  0  0  0  0  0  0  0  0  0  0  0
  -90.0511   31.5234   -1.6697 C   0  0  0  0  0  0  0  0  0  0  0  0
  -89.3099   31.9477   -2.8659 N   0  0  0  0  0  0  0  0  0  0  0  0
  -88.6634   30.9882   -3.6917 C   0  0  0  0  0  0  0  0  0  0  0  0
  -87.7427   30.0788   -2.9102 C   0  0  0  0  0  0  0  0  0  0  0  0
  -88.1217   30.0257   -1.5069 N   0  0  0  0  0  0  0  0  0  0  0  0
  -89.2733   33.3390   -3.1906 C   0  0  0  0  0  0  0  0  0  0  0  0
  -90.2397   34.0258   -3.8683 C   0  0  0  0  0  0  0  0  0  0  0  0
  -90.1292   35.3988   -4.1286 C   0  0  0  0  0  0  0  0  0  0  0  0
  -89.0388   36.1165   -3.7117 C   0  0  0  0  0  0  0  0  0  0  0  0
  -88.8973   37.4461   -3.9437 F   0  0  0  0  0  0  0  0  0  0  0  0
  -88.0684   35.4163   -3.0292 C   0  0  0  0  0  0  0  0  0  0  0  0
  -88.1580   34.0771   -2.7654 C   0  0  0  0  0  0  0  0  0  0  0  0
  -87.0802   29.7743   -0.5735 C   0  0  0  0  0  0  0  0  0  0  0  0
  -86.8243   28.4820   -0.1092 C   0  0  0  0  0  0  0  0  0  0  0  0
  -85.8292   28.2173    0.7775 C   0  0  0  0  0  0  0  0  0  0  0  0
  -84.9817   29.2168    1.2965 C   0  0  0  0  0  0  0  0  0  0  0  0
  -85.2193   30.4910    0.8514 C   0  0  0  0  0  0  0  0  0  0  0  0
  -86.2595   30.7406   -0.0705 C   0  0  0  0  0  0  0  0  0  0  0  0
  -83.9457   28.8364    2.2281 C   0  0  0  0  0  0  0  0  0  0  0  0
  -82.5924   28.8844    2.0868 O   0  0  0  0  0  0  0  0  0  0  0  0
  -84.3302   28.3791    3.3687 O   0  0  0  0  0  0  0  0  0  0  0  0
  -81.9457   29.2200    2.8072 H   0  0  0  0  0  0  0  0  0  0  0  0
  -84.3957   31.6222    1.3349 C   0  0  0  0  0  0  0  0  0  0  0  0
  -84.9183   32.7864    0.7037 F   0  0  0  0  0  0  0  0  0  0  0  0
  -83.0927   31.5901    0.8917 F   0  0  0  0  0  0  0  0  0  0  0  0
  -84.4629   31.8146    2.6888 F   0  0  0  0  0  0  0  0  0  0  0  0
  -90.5067   28.0112   -0.6050 C   0  0  0  0  0  0  0  0  0  0  0  0
  -90.4005   29.1093   -1.6240 C   0  0  0  0  0  0  0  0  0  0  0  0
  -91.8051   29.7079   -1.7838 C   0  0  0  0  0  0  0  0  0  0  0  0
 28 29  1  0  0  0
 29 30  1  0  0  0
 29  1  1  0  0  0
  1  2  1  0  0  0
  2  3  1  0  0  0
  3  4  1  0  0  0
  4  5  1  0  0  0
  5  6  1  0  0  0
  6 14  1  0  0  0
 14 15  2  0  0  0
 15 16  1  0  0  0
 16 17  2  0  0  0
 17 20  1  0  0  0
 20 21  1  0  0  0
 20 22  2  0  0  0
 17 18  1  0  0  0
 18 19  2  0  0  0
 18 24  1  0  0  0
 24 25  1  0  0  0
 24 26  1  0  0  0
 24 27  1  0  0  0
  3  7  1  0  0  0
  7  8  2  0  0  0
  8  9  1  0  0  0
  9 10  2  0  0  0
 10 11  1  0  0  0
 10 12  1  0  0  0
 12 13  2  0  0  0
  6  1  1  0  0  0
 19 14  1  0  0  0
 13  7  1  0  0  0
 21 23  1  0  0  0
M  END
> <minimizedAffinity>
-8.56321

> <CNNscore>
0.1410821378

> <CNNaffinity>
6.0571532249

> <CNN_VS>
0.8545561433

> <CNNaffinity_variance>
0.1121826395

$$$$
[H]OC(=O)c1c([H])c([H])c(N2C([H])([H])C([H])([H])N(c3c([H])c([H])c(F)c([H])c3[H])C([H])([H])[C@@]2([H])C([H])(C([H])([H])[H])C([H])([H])[H])c([H])c1C(F)(F)F


 30 32  0  0  0  0  0  0  0  0999 V2000
  -88.1626   33.0769   -2.1521 C   0  0  0  0  0  0  0  0  0  0  0  0
  -89.2580   32.1009   -1.8595 C   0  0  0  0  0  0  0  0  0  0  0  0
  -89.4352   31.2121   -3.0166 N   0  0  0  0  0  0  0  0  0  0  0  0
  -88.3535   30.9581   -3.9031 C   0  0  0  0  0  0  0  0  0  0  0  0
  -87.7220   32.2288   -4.4243 C   0  0  0  0  0  0  0  0  0  0  0  0
  -87.9786   33.3487   -3.5323 N   0  0  0  0  0  0  0  0  0  0  0  0
  -90.7083   30.5940   -3.2162 C   0  0  0  0  0  0  0  0  0  0  0  0
  -91.7880   31.1690   -3.8233 C   0  0  0  0  0  0  0  0  0  0  0  0
  -92.9971   30.4803   -3.9931 C   0  0  0  0  0  0  0  0  0  0  0  0
  -93.1494   29.1913   -3.5537 C   0  0  0  0  0  0  0  0  0  0  0  0
  -94.3034   28.4924   -3.7012 F   0  0  0  0  0  0  0  0  0  0  0  0
  -92.0559   28.6187   -2.9420 C   0  0  0  0  0  0  0  0  0  0  0  0
  -90.8680   29.2740   -2.7673 C   0  0  0  0  0  0  0  0  0  0  0  0
  -88.0290   34.6389   -4.1256 C   0  0  0  0  0  0  0  0  0  0  0  0
  -88.2416   34.7940   -5.4974 C   0  0  0  0  0  0  0  0  0  0  0  0
  -88.3008   36.0179   -6.0849 C   0  0  0  0  0  0  0  0  0  0  0  0
  -88.1535   37.2201   -5.3639 C   0  0  0  0  0  0  0  0  0  0  0  0
  -87.9440   37.0859   -4.0163 C   0  0  0  0  0  0  0  0  0  0  0  0
  -87.8867   35.8029   -3.4291 C   0  0  0  0  0  0  0  0  0  0  0  0
  -88.2406   38.4738   -6.0756 C   0  0  0  0  0  0  0  0  0  0  0  0
  -87.2457   39.2620   -6.5682 O   0  0  0  0  0  0  0  0  0  0  0  0
  -89.4220   38.9397   -6.2881 O   0  0  0  0  0  0  0  0  0  0  0  0
  -87.2603   39.7043   -7.4923 H   0  0  0  0  0  0  0  0  0  0  0  0
  -87.7680   38.2807   -3.1600 C   0  0  0  0  0  0  0  0  0  0  0  0
  -87.7250   37.8009   -1.8204 F   0  0  0  0  0  0  0  0  0  0  0  0
  -88.8570   39.1230   -3.1508 F   0  0  0  0  0  0  0  0  0  0  0  0
  -86.6050   38.9632   -3.3974 F   0  0  0  0  0  0  0  0  0  0  0  0
  -86.1709   33.7235   -0.7714 C   0  0  0  0  0  0  0  0  0  0  0  0
  -86.9061   32.6029   -1.4490 C   0  0  0  0  0  0  0  0  0  0  0  0
  -87.3441   31.6261   -0.3487 C   0  0  0  0  0  0  0  0  0  0  0  0
 28 29  1  0  0  0
 29 30  1  0  0  0
 29  1  1  0  0  0
  1  2  1  0  0  0
  2  3  1  0  0  0
  3  4  1  0  0  0
  4  5  1  0  0  0
  5  6  1  0  0  0
  6 14  1  0  0  0
 14 15  2  0  0  0
 15 16  1  0  0  0
 16 17  2  0  0  0
 17 20  1  0  0  0
 20 21  1  0  0  0
 20 22  2  0  0  0
 17 18  1  0  0  0
 18 19  2  0  0  0
 18 24  1  0  0  0
 24 25  1  0  0  0
 24 26  1  0  0  0
 24 27  1  0  0  0
  3  7  1  0  0  0
  7  8  2  0  0  0
  8  9  1  0  0  0
  9 10  2  0  0  0
 10 11  1  0  0  0
 10 12  1  0  0  0
 12 13  2  0  0  0
  6  1  1  0  0  0
 19 14  1  0  0  0
 13  7  1  0  0  0
 21 23  1  0  0  0
M  END
> <minimizedAffinity>
-6.00128

> <CNNscore>
0.1183396876

> <CNNaffinity>
5.2482352257

> <CNN_VS>
0.6210744977

> <CNNaffinity_variance>
0.1946949065

$$$$
[H]OC(=O)c1c([H])c([H])c(N2C([H])([H])C([H])([H])N(c3c([H])c([H])c(F)c([H])c3[H])C([H])([H])[C@@]2([H])C([H])(C([H])([H])[H])C([H])([H])[H])c([H])c1C(F)(F)F


 30 32  0  0  0  0  0  0  0  0999 V2000
  -88.9886   30.8378   -2.8674 C   0  0  0  0  0  0  0  0  0  0  0  0
  -87.8637   30.1920   -2.1219 C   0  0  0  0  0  0  0  0  0  0  0  0
  -87.6455   30.9108   -0.8586 N   0  0  0  0  0  0  0  0  0  0  0  0
  -88.7095   31.6229   -0.2411 C   0  0  0  0  0  0  0  0  0  0  0  0
  -89.3786   32.5963   -1.1845 C   0  0  0  0  0  0  0  0  0  0  0  0
  -89.1685   32.2137   -2.5720 N   0  0  0  0  0  0  0  0  0  0  0  0
  -86.3504   30.8587   -0.2565 C   0  0  0  0  0  0  0  0  0  0  0  0
  -85.5160   31.9228   -0.0653 C   0  0  0  0  0  0  0  0  0  0  0  0
  -84.2655   31.7828    0.5526 C   0  0  0  0  0  0  0  0  0  0  0  0
  -83.8227   30.5635    0.9943 C   0  0  0  0  0  0  0  0  0  0  0  0
  -82.6196   30.3892    1.5977 F   0  0  0  0  0  0  0  0  0  0  0  0
  -84.6700   29.4953    0.7973 C   0  0  0  0  0  0  0  0  0  0  0  0
  -85.8935   29.6116    0.1969 C   0  0  0  0  0  0  0  0  0  0  0  0
  -89.1561   33.2640   -3.5290 C   0  0  0  0  0  0  0  0  0  0  0  0
  -89.5747   33.0467   -4.8438 C   0  0  0  0  0  0  0  0  0  0  0  0
  -89.5782   34.0377   -5.7734 C   0  0  0  0  0  0  0  0  0  0  0  0
  -89.1630   35.3544   -5.4890 C   0  0  0  0  0  0  0  0  0  0  0  0
  -88.7487   35.5849   -4.2032 C   0  0  0  0  0  0  0  0  0  0  0  0
  -88.7545   34.5384   -3.2551 C   0  0  0  0  0  0  0  0  0  0  0  0
  -89.2108   36.3422   -6.5416 C   0  0  0  0  0  0  0  0  0  0  0  0
  -90.2061   37.2112   -6.8704 O   0  0  0  0  0  0  0  0  0  0  0  0
  -88.1728   36.4354   -7.2976 O   0  0  0  0  0  0  0  0  0  0  0  0
  -90.0603   38.1982   -7.1036 H   0  0  0  0  0  0  0  0  0  0  0  0
  -88.2837   36.9291   -3.7926 C   0  0  0  0  0  0  0  0  0  0  0  0
  -87.8634   36.8025   -2.4383 F   0  0  0  0  0  0  0  0  0  0  0  0
  -89.2896   37.8659   -3.7168 F   0  0  0  0  0  0  0  0  0  0  0  0
  -87.2190   37.3904   -4.5195 F   0  0  0  0  0  0  0  0  0  0  0  0
  -91.1864   30.0940   -3.8203 C   0  0  0  0  0  0  0  0  0  0  0  0
  -90.2351   29.9999   -2.6621 C   0  0  0  0  0  0  0  0  0  0  0  0
  -89.7858   28.5348   -2.5708 C   0  0  0  0  0  0  0  0  0  0  0  0
 28 29  1  0  0  0
 29 30  1  0  0  0
 29  1  1  0  0  0
  1  2  1  0  0  0
  2  3  1  0  0  0
  3  4  1  0  0  0
  4  5  1  0  0  0
  5  6  1  0  0  0
  6 14  1  0  0  0
 14 15  2  0  0  0
 15 16  1  0  0  0
 16 17  2  0  0  0
 17 20  1  0  0  0
 20 21  1  0  0  0
 20 22  2  0  0  0
 17 18  1  0  0  0
 18 19  2  0  0  0
 18 24  1  0  0  0
 24 25  1  0  0  0
 24 26  1  0  0  0
 24 27  1  0  0  0
  3  7  1  0  0  0
  7  8  2  0  0  0
  8  9  1  0  0  0
  9 10  2  0  0  0
 10 11  1  0  0  0
 10 12  1  0  0  0
 12 13  2  0  0  0
  6  1  1  0  0  0
 19 14  1  0  0  0
 13  7  1  0  0  0
 21 23  1  0  0  0
M  END
> <minimizedAffinity>
-7.45538

> <CNNscore>
0.0898267627

> <CNNaffinity>
5.4054598808

> <CNN_VS>
0.4855549634

> <CNNaffinity_variance>
0.2488161772

$$$$
[H]OC(=O)c1c([H])c([H])c(N2C([H])([H])C([H])([H])N(c3c([H])c([H])c(F)c([H])c3[H])C([H])([H])[C@@]2([H])C([H])(C([H])([H])[H])C([H])([H])[H])c([H])c1C(F)(F)F


 30 32  0  0  0  0  0  0  0  0999 V2000
  -88.9220   30.9289   -2.9838 C   0  0  0  0  0  0  0  0  0  0  0  0
  -87.9811   30.1049   -2.1629 C   0  0  0  0  0  0  0  0  0  0  0  0
  -87.7680   30.7628   -0.8659 N   0  0  0  0  0  0  0  0  0  0  0  0
  -88.7601   31.6235   -0.3223 C   0  0  0  0  0  0  0  0  0  0  0  0
  -89.1843   32.7027   -1.2922 C   0  0  0  0  0  0  0  0  0  0  0  0
  -88.9131   32.3117   -2.6667 N   0  0  0  0  0  0  0  0  0  0  0  0
  -86.5553   30.5006   -0.1566 C   0  0  0  0  0  0  0  0  0  0  0  0
  -86.1396   29.2784    0.2886 C   0  0  0  0  0  0  0  0  0  0  0  0
  -84.9223   29.1095    0.9628 C   0  0  0  0  0  0  0  0  0  0  0  0
  -84.0907   30.1711    1.2065 C   0  0  0  0  0  0  0  0  0  0  0  0
  -82.9047   30.0465    1.8544 F   0  0  0  0  0  0  0  0  0  0  0  0
  -84.5174   31.4005    0.7546 C   0  0  0  0  0  0  0  0  0  0  0  0
  -85.7013   31.5855    0.0949 C   0  0  0  0  0  0  0  0  0  0  0  0
  -88.6535   33.3607   -3.5894 C   0  0  0  0  0  0  0  0  0  0  0  0
  -87.4521   34.0722   -3.5532 C   0  0  0  0  0  0  0  0  0  0  0  0
  -87.1796   35.0738   -4.4301 C   0  0  0  0  0  0  0  0  0  0  0  0
  -88.0797   35.4731   -5.4387 C   0  0  0  0  0  0  0  0  0  0  0  0
  -89.2639   34.7853   -5.4881 C   0  0  0  0  0  0  0  0  0  0  0  0
  -89.5236   33.7480   -4.5657 C   0  0  0  0  0  0  0  0  0  0  0  0
  -87.6967   36.5433   -6.3297 C   0  0  0  0  0  0  0  0  0  0  0  0
  -86.9249   36.5038   -7.4506 O   0  0  0  0  0  0  0  0  0  0  0  0
  -88.1346   37.7201   -6.0451 O   0  0  0  0  0  0  0  0  0  0  0  0
  -87.1474   36.9891   -8.3251 H   0  0  0  0  0  0  0  0  0  0  0  0
  -90.2883   35.1236   -6.5020 C   0  0  0  0  0  0  0  0  0  0  0  0
  -91.2225   34.0496   -6.4900 F   0  0  0  0  0  0  0  0  0  0  0  0
  -89.8167   35.1074   -7.7953 F   0  0  0  0  0  0  0  0  0  0  0  0
  -90.9738   36.2772   -6.2300 F   0  0  0  0  0  0  0  0  0  0  0  0
  -91.0845   30.4824   -4.1737 C   0  0  0  0  0  0  0  0  0  0  0  0
  -90.2961   30.2931   -2.9096 C   0  0  0  0  0  0  0  0  0  0  0  0
  -90.0870   28.7822   -2.7354 C   0  0  0  0  0  0  0  0  0  0  0  0
 28 29  1  0  0  0
 29 30  1  0  0  0
 29  1  1  0  0  0
  1  2  1  0  0  0
  2  3  1  0  0  0
  3  4  1  0  0  0
  4  5  1  0  0  0
  5  6  1  0  0  0
  6 14  1  0  0  0
 14 15  2  0  0  0
 15 16  1  0  0  0
 16 17  2  0  0  0
 17 20  1  0  0  0
 20 21  1  0  0  0
 20 22  2  0  0  0
 17 18  1  0  0  0
 18 19  2  0  0  0
 18 24  1  0  0  0
 24 25  1  0  0  0
 24 26  1  0  0  0
 24 27  1  0  0  0
  3  7  1  0  0  0
  7  8  2  0  0  0
  8  9  1  0  0  0
  9 10  2  0  0  0
 10 11  1  0  0  0
 10 12  1  0  0  0
 12 13  2  0  0  0
  6  1  1  0  0  0
 19 14  1  0  0  0
 13  7  1  0  0  0
 21 23  1  0  0  0
M  END
> <minimizedAffinity>
-7.94258

> <CNNscore>
0.0816182867

> <CNNaffinity>
5.3391170502

> <CNN_VS>
0.4357695878

> <CNNaffinity_variance>
0.2157766372

$$$$
[H]OC(=O)c1c([H])c([H])c(N2C([H])([H])C([H])([H])N(c3c([H])c([H])c(F)c([H])c3[H])C([H])([H])[C@@]2([H])C([H])(C([H])([H])[H])C([H])([H])[H])c([H])c1C(F)(F)F


 30 32  0  0  0  0  0  0  0  0999 V2000
  -87.9712   32.4831   -1.7389 C   0  0  0  0  0  0  0  0  0  0  0  0
  -88.6748   31.1952   -1.4480 C   0  0  0  0  0  0  0  0  0  0  0  0
  -88.7550   30.3991   -2.6809 N   0  0  0  0  0  0  0  0  0  0  0  0
  -87.7924   30.5692   -3.7129 C   0  0  0  0  0  0  0  0  0  0  0  0
  -87.6477   32.0130   -4.1370 C   0  0  0  0  0  0  0  0  0  0  0  0
  -88.0847   32.9172   -3.0848 N   0  0  0  0  0  0  0  0  0  0  0  0
  -89.8053   29.4383   -2.8081 C   0  0  0  0  0  0  0  0  0  0  0  0
  -91.0746   29.6963   -3.2406 C   0  0  0  0  0  0  0  0  0  0  0  0
  -92.0399   28.6858   -3.3518 C   0  0  0  0  0  0  0  0  0  0  0  0
  -91.7497   27.3861   -3.0286 C   0  0  0  0  0  0  0  0  0  0  0  0
  -92.6569   26.3813   -3.1245 F   0  0  0  0  0  0  0  0  0  0  0  0
  -90.4674   27.1343   -2.5928 C   0  0  0  0  0  0  0  0  0  0  0  0
  -89.5118   28.1062   -2.4777 C   0  0  0  0  0  0  0  0  0  0  0  0
  -88.6003   34.1753   -3.4976 C   0  0  0  0  0  0  0  0  0  0  0  0
  -89.9750   34.3813   -3.6353 C   0  0  0  0  0  0  0  0  0  0  0  0
  -90.4905   35.5777   -4.0215 C   0  0  0  0  0  0  0  0  0  0  0  0
  -89.6868   36.6986   -4.3123 C   0  0  0  0  0  0  0  0  0  0  0  0
  -88.3352   36.5136   -4.1824 C   0  0  0  0  0  0  0  0  0  0  0  0
  -87.8237   35.2606   -3.7793 C   0  0  0  0  0  0  0  0  0  0  0  0
  -90.3277   37.9312   -4.7069 C   0  0  0  0  0  0  0  0  0  0  0  0
  -90.5579   38.4283   -5.9534 O   0  0  0  0  0  0  0  0  0  0  0  0
  -90.7526   38.6934   -3.7602 O   0  0  0  0  0  0  0  0  0  0  0  0
  -91.4380   38.8595   -6.2522 H   0  0  0  0  0  0  0  0  0  0  0  0
  -87.3939   37.6198   -4.4689 C   0  0  0  0  0  0  0  0  0  0  0  0
  -87.5924   37.9598   -5.8370 F   0  0  0  0  0  0  0  0  0  0  0  0
  -86.0695   37.2456   -4.4334 F   0  0  0  0  0  0  0  0  0  0  0  0
  -87.6201   38.7443   -3.7214 F   0  0  0  0  0  0  0  0  0  0  0  0
  -86.0071   33.6541   -0.7080 C   0  0  0  0  0  0  0  0  0  0  0  0
  -86.5402   32.3606   -1.2541 C   0  0  0  0  0  0  0  0  0  0  0  0
  -86.5391   31.3525   -0.0963 C   0  0  0  0  0  0  0  0  0  0  0  0
 28 29  1  0  0  0
 29 30  1  0  0  0
 29  1  1  0  0  0
  1  2  1  0  0  0
  2  3  1  0  0  0
  3  4  1  0  0  0
  4  5  1  0  0  0
  5  6  1  0  0  0
  6 14  1  0  0  0
 14 15  2  0  0  0
 15 16  1  0  0  0
 16 17  2  0  0  0
 17 20  1  0  0  0
 20 21  1  0  0  0
 20 22  2  0  0  0
 17 18  1  0  0  0
 18 19  2  0  0  0
 18 24  1  0  0  0
 24 25  1  0  0  0
 24 26  1  0  0  0
 24 27  1  0  0  0
  3  7  1  0  0  0
  7  8  2  0  0  0
  8  9  1  0  0  0
  9 10  2  0  0  0
 10 11  1  0  0  0
 10 12  1  0  0  0
 12 13  2  0  0  0
  6  1  1  0  0  0
 19 14  1  0  0  0
 13  7  1  0  0  0
 21 23  1  0  0  0
M  END
> <minimizedAffinity>
-6.30066

> <CNNscore>
0.0770868212

> <CNNaffinity>
5.0775661469

> <CNN_VS>
0.3914134204

> <CNNaffinity_variance>
0.3173493743

$$$$
[H]OC(=O)c1c([H])c([H])c(N2C([H])([H])C([H])([H])N(c3c([H])c([H])c(F)c([H])c3[H])C([H])([H])[C@@]2([H])C([H])(C([H])([H])[H])C([H])([H])[H])c([H])c1C(F)(F)F


 30 32  0  0  0  0  0  0  0  0999 V2000
  -89.4078   27.3922    1.4174 C   0  0  0  0  0  0  0  0  0  0  0  0
  -90.5871   26.9250    0.6244 C   0  0  0  0  0  0  0  0  0  0  0  0
  -90.1224   26.0587   -0.4682 N   0  0  0  0  0  0  0  0  0  0  0  0
  -88.9032   25.3377   -0.3479 C   0  0  0  0  0  0  0  0  0  0  0  0
  -87.7395   26.2272    0.0260 C   0  0  0  0  0  0  0  0  0  0  0  0
  -88.1953   27.4425    0.6826 N   0  0  0  0  0  0  0  0  0  0  0  0
  -90.9321   25.9408   -1.6400 C   0  0  0  0  0  0  0  0  0  0  0  0
  -90.9927   26.8443   -2.6622 C   0  0  0  0  0  0  0  0  0  0  0  0
  -91.8045   26.6387   -3.7864 C   0  0  0  0  0  0  0  0  0  0  0  0
  -92.5783   25.5144   -3.9091 C   0  0  0  0  0  0  0  0  0  0  0  0
  -93.3752   25.2801   -4.9824 F   0  0  0  0  0  0  0  0  0  0  0  0
  -92.5119   24.6083   -2.8736 C   0  0  0  0  0  0  0  0  0  0  0  0
  -91.7261   24.7908   -1.7689 C   0  0  0  0  0  0  0  0  0  0  0  0
  -87.3800   28.5959    0.5279 C   0  0  0  0  0  0  0  0  0  0  0  0
  -87.4904   29.4109   -0.6012 C   0  0  0  0  0  0  0  0  0  0  0  0
  -86.7264   30.5224   -0.7667 C   0  0  0  0  0  0  0  0  0  0  0  0
  -85.7684   30.9396    0.1794 C   0  0  0  0  0  0  0  0  0  0  0  0
  -85.6470   30.1508    1.2935 C   0  0  0  0  0  0  0  0  0  0  0  0
  -86.4526   29.0006    1.4425 C   0  0  0  0  0  0  0  0  0  0  0  0
  -85.0100   32.1408   -0.0811 C   0  0  0  0  0  0  0  0  0  0  0  0
  -83.6902   32.2843   -0.3833 O   0  0  0  0  0  0  0  0  0  0  0  0
  -85.6512   33.2558   -0.0239 O   0  0  0  0  0  0  0  0  0  0  0  0
  -83.3265   32.9071   -1.1112 H   0  0  0  0  0  0  0  0  0  0  0  0
  -84.6671   30.4883    2.3506 C   0  0  0  0  0  0  0  0  0  0  0  0
  -84.9814   29.6520    3.4589 F   0  0  0  0  0  0  0  0  0  0  0  0
  -84.8210   31.7551    2.8670 F   0  0  0  0  0  0  0  0  0  0  0  0
  -83.3674   30.2428    1.9968 F   0  0  0  0  0  0  0  0  0  0  0  0
  -89.2558   27.3971    3.9211 C   0  0  0  0  0  0  0  0  0  0  0  0
  -89.3245   26.5558    2.6790 C   0  0  0  0  0  0  0  0  0  0  0  0
  -90.6198   25.7364    2.7652 C   0  0  0  0  0  0  0  0  0  0  0  0
 28 29  1  0  0  0
 29 30  1  0  0  0
 29  1  1  0  0  0
  1  2  1  0  0  0
  2  3  1  0  0  0
  3  4  1  0  0  0
  4  5  1  0  0  0
  5  6  1  0  0  0
  6 14  1  0  0  0
 14 15  2  0  0  0
 15 16  1  0  0  0
 16 17  2  0  0  0
 17 20  1  0  0  0
 20 21  1  0  0  0
 20 22  2  0  0  0
 17 18  1  0  0  0
 18 19  2  0  0  0
 18 24  1  0  0  0
 24 25  1  0  0  0
 24 26  1  0  0  0
 24 27  1  0  0  0
  3  7  1  0  0  0
  7  8  2  0  0  0
  8  9  1  0  0  0
  9 10  2  0  0  0
 10 11  1  0  0  0
 10 12  1  0  0  0
 12 13  2  0  0  0
  6  1  1  0  0  0
 19 14  1  0  0  0
 13  7  1  0  0  0
 21 23  1  0  0  0
M  END
> <minimizedAffinity>
-8.44916

> <CNNscore>
0.0742206052

> <CNNaffinity>
5.5905814171

> <CNN_VS>
0.4149363339

> <CNNaffinity_variance>
0.2174392939

$$$$
[H]OC(=O)c1c([H])c([H])c(N2C([H])([H])C([H])([H])N(c3c([H])c([H])c(F)c([H])c3[H])C([H])([H])[C@@]2([H])C([H])(C([H])([H])[H])C([H])([H])[H])c([H])c1C(F)(F)F


 30 32  0  0  0  0  0  0  0  0999 V2000
  -87.7944   31.4704   -2.5550 C   0  0  0  0  0  0  0  0  0  0  0  0
  -88.7687   30.8329   -3.4943 C   0  0  0  0  0  0  0  0  0  0  0  0
  -90.0434   30.6167   -2.7953 N   0  0  0  0  0  0  0  0  0  0  0  0
  -90.4129   31.4413   -1.6980 C   0  0  0  0  0  0  0  0  0  0  0  0
  -89.3400   31.5050   -0.6350 C   0  0  0  0  0  0  0  0  0  0  0  0
  -88.0328   31.1837   -1.1862 N   0  0  0  0  0  0  0  0  0  0  0  0
  -90.9091   29.5773   -3.2564 C   0  0  0  0  0  0  0  0  0  0  0  0
  -91.9066   29.7200   -4.1781 C   0  0  0  0  0  0  0  0  0  0  0  0
  -92.6988   28.6381   -4.5869 C   0  0  0  0  0  0  0  0  0  0  0  0
  -92.5056   27.3815   -4.0754 C   0  0  0  0  0  0  0  0  0  0  0  0
  -93.2511   26.3103   -4.4474 F   0  0  0  0  0  0  0  0  0  0  0  0
  -91.4979   27.2461   -3.1460 C   0  0  0  0  0  0  0  0  0  0  0  0
  -90.7143   28.2891   -2.7346 C   0  0  0  0  0  0  0  0  0  0  0  0
  -87.0919   30.5972   -0.2975 C   0  0  0  0  0  0  0  0  0  0  0  0
  -86.0161   31.3342    0.2030 C   0  0  0  0  0  0  0  0  0  0  0  0
  -85.1086   30.7962    1.0594 C   0  0  0  0  0  0  0  0  0  0  0  0
  -85.1784   29.4618    1.5083 C   0  0  0  0  0  0  0  0  0  0  0  0
  -86.2281   28.7242    1.0265 C   0  0  0  0  0  0  0  0  0  0  0  0
  -87.1583   29.3062    0.1375 C   0  0  0  0  0  0  0  0  0  0  0  0
  -84.1715   28.9825    2.4260 C   0  0  0  0  0  0  0  0  0  0  0  0
  -82.8478   28.7444    2.2138 O   0  0  0  0  0  0  0  0  0  0  0  0
  -84.5547   28.7336    3.6298 O   0  0  0  0  0  0  0  0  0  0  0  0
  -82.0990   29.0180    2.8574 H   0  0  0  0  0  0  0  0  0  0  0  0
  -86.3975   27.3084    1.4245 C   0  0  0  0  0  0  0  0  0  0  0  0
  -87.1098   26.6843    0.3616 F   0  0  0  0  0  0  0  0  0  0  0  0
  -87.2348   27.1306    2.5027 F   0  0  0  0  0  0  0  0  0  0  0  0
  -85.2160   26.6360    1.5876 F   0  0  0  0  0  0  0  0  0  0  0  0
  -86.3901   33.5487   -2.5678 C   0  0  0  0  0  0  0  0  0  0  0  0
  -87.7352   32.9524   -2.8684 C   0  0  0  0  0  0  0  0  0  0  0  0
  -87.9644   33.1052   -4.3786 C   0  0  0  0  0  0  0  0  0  0  0  0
 28 29  1  0  0  0
 29 30  1  0  0  0
 29  1  1  0  0  0
  1  2  1  0  0  0
  2  3  1  0  0  0
  3  4  1  0  0  0
  4  5  1  0  0  0
  5  6  1  0  0  0
  6 14  1  0  0  0
 14 15  2  0  0  0
 15 16  1  0  0  0
 16 17  2  0  0  0
 17 20  1  0  0  0
 20 21  1  0  0  0
 20 22  2  0  0  0
 17 18  1  0  0  0
 18 19  2  0  0  0
 18 24  1  0  0  0
 24 25  1  0  0  0
 24 26  1  0  0  0
 24 27  1  0  0  0
  3  7  1  0  0  0
  7  8  2  0  0  0
  8  9  1  0  0  0
  9 10  2  0  0  0
 10 11  1  0  0  0
 10 12  1  0  0  0
 12 13  2  0  0  0
  6  1  1  0  0  0
 19 14  1  0  0  0
 13  7  1  0  0  0
 21 23  1  0  0  0
M  END
> <minimizedAffinity>
-7.94324

> <CNNscore>
0.0679825246

> <CNNaffinity>
5.5167360306

> <CNN_VS>
0.3750416338

> <CNNaffinity_variance>
0.3051466644

$$$$
[H]c1c([H])c([H])c(C(=O)N([H])[C@]([H])(C(=O)N([H])[C@]([H])(C(=O)N([H])[C@]([H])(C(=O)c2c([H])c([H])c([H])c([H])c2[H])C([H])([H])c2c([H])c([H])c([H])c([H])c2[H])C([H])([H])c2c([H])n([H])c3c([H])c([H])c([H])c([H])c23)C([H])([H])C([H])(C([H])([H])[H])C([H])([H])[H])c([H])c1[H]


 51 55  0  0  0  0  0  0  0  0999 V2000
  -87.0581   32.2432   -1.4540 C   0  0  0  0  0  0  0  0  0  0  0  0
  -87.9169   32.8569   -3.6343 C   0  0  0  0  0  0  0  0  0  0  0  0
  -87.3336   31.7317   -4.0007 O   0  0  0  0  0  0  0  0  0  0  0  0
  -87.9268   33.2147   -2.2161 N   0  0  0  0  0  0  0  0  0  0  0  0
  -88.3402   33.9817   -1.7800 H   0  0  0  0  0  0  0  0  0  0  0  0
  -88.3867   33.6889   -4.6590 C   0  0  0  0  0  0  0  0  0  0  0  0
  -89.5274   33.2001   -5.3072 N   0  0  0  0  0  0  0  0  0  0  0  0
  -90.9250   33.1195   -5.0562 C   0  0  0  0  0  0  0  0  0  0  0  0
  -91.9235   32.8334   -4.4278 O   0  0  0  0  0  0  0  0  0  0  0  0
  -89.2691   32.5333   -6.2934 H   0  0  0  0  0  0  0  0  0  0  0  0
  -91.3245   34.0640   -6.2556 C   0  0  0  0  0  0  0  0  0  0  0  0
  -92.0895   34.9862   -5.5944 C   0  0  0  0  0  0  0  0  0  0  0  0
  -92.1273   36.3388   -6.1042 C   0  0  0  0  0  0  0  0  0  0  0  0
  -91.3912   36.6050   -7.2189 C   0  0  0  0  0  0  0  0  0  0  0  0
  -90.6580   35.6630   -7.9023 C   0  0  0  0  0  0  0  0  0  0  0  0
  -90.6673   34.2801   -7.3068 C   0  0  0  0  0  0  0  0  0  0  0  0
  -89.1009   34.8662   -3.7741 C   0  0  0  0  0  0  0  0  0  0  0  0
  -87.8465   36.0949   -5.4850 C   0  0  0  0  0  0  0  0  0  0  0  0
  -88.5225   36.1644   -4.1038 C   0  0  0  0  0  0  0  0  0  0  0  0
  -89.3805   37.3429   -3.8901 C   0  0  0  0  0  0  0  0  0  0  0  0
  -88.0749   31.3203   -1.0153 C   0  0  0  0  0  0  0  0  0  0  0  0
  -89.1429   31.7169   -0.3989 O   0  0  0  0  0  0  0  0  0  0  0  0
  -87.8807   29.9575   -1.2984 N   0  0  0  0  0  0  0  0  0  0  0  0
  -86.9995   29.6545   -1.7761 H   0  0  0  0  0  0  0  0  0  0  0  0
  -88.8626   28.9625   -1.0499 C   0  0  0  0  0  0  0  0  0  0  0  0
  -88.4092   28.2223    0.1096 C   0  0  0  0  0  0  0  0  0  0  0  0
  -87.1938   27.8816    0.1705 O   0  0  0  0  0  0  0  0  0  0  0  0
  -89.3010   27.8906    1.2502 C   0  0  0  0  0  0  0  0  0  0  0  0
  -90.5134   28.5531    1.2183 C   0  0  0  0  0  0  0  0  0  0  0  0
  -91.2112   28.7085    2.4135 C   0  0  0  0  0  0  0  0  0  0  0  0
  -90.7219   28.1989    3.5793 C   0  0  0  0  0  0  0  0  0  0  0  0
  -89.4998   27.5146    3.5679 C   0  0  0  0  0  0  0  0  0  0  0  0
  -88.8151   27.3633    2.3377 C   0  0  0  0  0  0  0  0  0  0  0  0
  -88.8012   28.1403   -2.3825 C   0  0  0  0  0  0  0  0  0  0  0  0
  -90.0828   27.4292   -2.4595 C   0  0  0  0  0  0  0  0  0  0  0  0
  -90.0011   26.0418   -2.2253 C   0  0  0  0  0  0  0  0  0  0  0  0
  -91.1145   25.3525   -1.8809 C   0  0  0  0  0  0  0  0  0  0  0  0
  -92.3484   26.0235   -1.7451 C   0  0  0  0  0  0  0  0  0  0  0  0
  -92.4400   27.4080   -2.0105 C   0  0  0  0  0  0  0  0  0  0  0  0
  -91.2859   28.1110   -2.3584 C   0  0  0  0  0  0  0  0  0  0  0  0
  -86.3090   33.1205   -0.5523 C   0  0  0  0  0  0  0  0  0  0  0  0
  -85.0356   32.6223   -0.1730 C   0  0  0  0  0  0  0  0  0  0  0  0
  -83.7968   33.2712   -0.6286 C   0  0  0  0  0  0  0  0  0  0  0  0
  -82.8192   32.4468   -0.1733 N   0  0  0  0  0  0  0  0  0  0  0  0
  -83.3233   31.4218    0.5091 C   0  0  0  0  0  0  0  0  0  0  0  0
  -82.6126   30.4911    1.1978 C   0  0  0  0  0  0  0  0  0  0  0  0
  -83.3463   29.5912    2.0393 C   0  0  0  0  0  0  0  0  0  0  0  0
  -84.7323   29.6696    2.0555 C   0  0  0  0  0  0  0  0  0  0  0  0
  -85.3949   30.6019    1.3414 C   0  0  0  0  0  0  0  0  0  0  0  0
  -84.6816   31.4679    0.5394 C   0  0  0  0  0  0  0  0  0  0  0  0
  -81.8036   32.6393   -0.5173 H   0  0  0  0  0  0  0  0  0  0  0  0
 18 19  1  0  0  0
 19 20  1  0  0  0
 19 17  1  0  0  0
 17  6  1  0  0  0
  6  7  1  0  0  0
  7  8  1  0  0  0
  8  9  2  0  0  0
  8 11  1  0  0  0
 11 12  2  0  0  0
 12 13  1  0  0  0
 13 14  2  0  0  0
 14 15  1  0  0  0
 15 16  2  0  0  0
  6  2  1  0  0  0
  2  3  2  0  0  0
  2  4  1  0  0  0
  4  1  1  0  0  0
  1 41  1  0  0  0
 41 42  1  0  0  0
 42 43  2  0  0  0
 43 44  1  0  0  0
 44 45  1  0  0  0
 45 46  2  0  0  0
 46 47  1  0  0  0
 47 48  2  0  0  0
 48 49  1  0  0  0
 49 50  2  0  0  0
  1 21  1  0  0  0
 21 22  2  0  0  0
 21 23  1  0  0  0
 23 25  1  0  0  0
 25 34  1  0  0  0
 34 35  1  0  0  0
 35 36  2  0  0  0
 36 37  1  0  0  0
 37 38  2  0  0  0
 38 39  1  0  0  0
 39 40  2  0  0  0
 25 26  1  0  0  0
 26 27  2  0  0  0
 26 28  1  0  0  0
 28 29  2  0  0  0
 29 30  1  0  0  0
 30 31  2  0  0  0
 31 32  1  0  0  0
 32 33  2  0  0  0
 16 11  1  0  0  0
 50 42  1  0  0  0
 40 35  1  0  0  0
 33 28  1  0  0  0
 50 45  1  0  0  0
  7 10  1  0  0  0
  4  5  1  0  0  0
 44 51  1  0  0  0
 23 24  1  0  0  0
M  END
> <minimizedAffinity>
-9.55497

> <CNNscore>
0.2888560891

> <CNNaffinity>
7.3951063156

> <CNN_VS>
2.1361215115

> <CNNaffinity_variance>
0.6175144315

$$$$
[H]c1c([H])c([H])c(C(=O)N([H])[C@]([H])(C(=O)N([H])[C@]([H])(C(=O)N([H])[C@]([H])(C(=O)c2c([H])c([H])c([H])c([H])c2[H])C([H])([H])c2c([H])c([H])c([H])c([H])c2[H])C([H])([H])c2c([H])n([H])c3c([H])c([H])c([H])c([H])c23)C([H])([H])C([H])(C([H])([H])[H])C([H])([H])[H])c([H])c1[H]


 51 55  0  0  0  0  0  0  0  0999 V2000
  -86.8175   28.2061    1.1170 C   0  0  0  0  0  0  0  0  0  0  0  0
  -87.6637   29.4491   -0.7822 C   0  0  0  0  0  0  0  0  0  0  0  0
  -86.7374   28.7708   -1.4321 O   0  0  0  0  0  0  0  0  0  0  0  0
  -87.8857   29.1573    0.6338 N   0  0  0  0  0  0  0  0  0  0  0  0
  -88.5455   29.5367    1.2421 H   0  0  0  0  0  0  0  0  0  0  0  0
  -88.2916   30.4899   -1.4789 C   0  0  0  0  0  0  0  0  0  0  0  0
  -87.5927   30.9124   -2.6161 N   0  0  0  0  0  0  0  0  0  0  0  0
  -87.8455   31.0684   -4.0070 C   0  0  0  0  0  0  0  0  0  0  0  0
  -88.1923   30.7186   -5.1166 O   0  0  0  0  0  0  0  0  0  0  0  0
  -86.4003   31.0626   -2.4172 H   0  0  0  0  0  0  0  0  0  0  0  0
  -87.6680   32.6364   -3.9937 C   0  0  0  0  0  0  0  0  0  0  0  0
  -88.8884   33.0234   -4.4771 C   0  0  0  0  0  0  0  0  0  0  0  0
  -89.4255   34.2949   -4.0464 C   0  0  0  0  0  0  0  0  0  0  0  0
  -88.6722   35.0277   -3.1798 C   0  0  0  0  0  0  0  0  0  0  0  0
  -87.4276   34.6514   -2.7309 C   0  0  0  0  0  0  0  0  0  0  0  0
  -86.9403   33.3143   -3.2225 C   0  0  0  0  0  0  0  0  0  0  0  0
  -89.4869   29.6596   -2.2281 C   0  0  0  0  0  0  0  0  0  0  0  0
  -91.4842   30.7437   -3.1479 C   0  0  0  0  0  0  0  0  0  0  0  0
  -90.7864   30.2230   -1.8783 C   0  0  0  0  0  0  0  0  0  0  0  0
  -91.6379   29.4154   -0.9876 C   0  0  0  0  0  0  0  0  0  0  0  0
  -87.6395   27.0518    1.3815 C   0  0  0  0  0  0  0  0  0  0  0  0
  -87.3711   26.2220    2.3392 O   0  0  0  0  0  0  0  0  0  0  0  0
  -88.7709   26.8607    0.5700 N   0  0  0  0  0  0  0  0  0  0  0  0
  -88.9572   27.5292   -0.2141 H   0  0  0  0  0  0  0  0  0  0  0  0
  -89.7391   25.8499    0.8085 C   0  0  0  0  0  0  0  0  0  0  0  0
  -89.9413   25.1721   -0.4555 C   0  0  0  0  0  0  0  0  0  0  0  0
  -89.2300   24.1613   -0.7186 O   0  0  0  0  0  0  0  0  0  0  0  0
  -90.9817   25.5859   -1.4316 C   0  0  0  0  0  0  0  0  0  0  0  0
  -92.1032   24.7786   -1.4237 C   0  0  0  0  0  0  0  0  0  0  0  0
  -92.9041   24.7518   -2.5628 C   0  0  0  0  0  0  0  0  0  0  0  0
  -92.6021   25.5206   -3.6472 C   0  0  0  0  0  0  0  0  0  0  0  0
  -91.4686   26.3427   -3.6095 C   0  0  0  0  0  0  0  0  0  0  0  0
  -90.6765   26.3574   -2.4358 C   0  0  0  0  0  0  0  0  0  0  0  0
  -90.9671   26.7110    1.2622 C   0  0  0  0  0  0  0  0  0  0  0  0
  -90.8751   26.7777    2.7255 C   0  0  0  0  0  0  0  0  0  0  0  0
  -90.6234   25.5426    3.3563 C   0  0  0  0  0  0  0  0  0  0  0  0
  -90.1337   25.5211    4.6185 C   0  0  0  0  0  0  0  0  0  0  0  0
  -89.8653   26.7306    5.2940 C   0  0  0  0  0  0  0  0  0  0  0  0
  -90.1467   27.9696    4.6767 C   0  0  0  0  0  0  0  0  0  0  0  0
  -90.6449   27.9818    3.3733 C   0  0  0  0  0  0  0  0  0  0  0  0
  -86.1426   28.9827    2.1588 C   0  0  0  0  0  0  0  0  0  0  0  0
  -84.8665   29.4793    1.7863 C   0  0  0  0  0  0  0  0  0  0  0  0
  -83.6327   28.7823    2.1805 C   0  0  0  0  0  0  0  0  0  0  0  0
  -82.6475   29.6144    1.7567 N   0  0  0  0  0  0  0  0  0  0  0  0
  -83.1435   30.6868    1.1448 C   0  0  0  0  0  0  0  0  0  0  0  0
  -82.4270   31.6434    0.4991 C   0  0  0  0  0  0  0  0  0  0  0  0
  -83.1577   32.6045   -0.2748 C   0  0  0  0  0  0  0  0  0  0  0  0
  -84.5450   32.5522   -0.2704 C   0  0  0  0  0  0  0  0  0  0  0  0
  -85.2130   31.5915    0.3997 C   0  0  0  0  0  0  0  0  0  0  0  0
  -84.5028   30.6671    1.1365 C   0  0  0  0  0  0  0  0  0  0  0  0
  -81.6300   29.3837    2.0704 H   0  0  0  0  0  0  0  0  0  0  0  0
 18 19  1  0  0  0
 19 20  1  0  0  0
 19 17  1  0  0  0
 17  6  1  0  0  0
  6  7  1  0  0  0
  7  8  1  0  0  0
  8  9  2  0  0  0
  8 11  1  0  0  0
 11 12  2  0  0  0
 12 13  1  0  0  0
 13 14  2  0  0  0
 14 15  1  0  0  0
 15 16  2  0  0  0
  6  2  1  0  0  0
  2  3  2  0  0  0
  2  4  1  0  0  0
  4  1  1  0  0  0
  1 41  1  0  0  0
 41 42  1  0  0  0
 42 43  2  0  0  0
 43 44  1  0  0  0
 44 45  1  0  0  0
 45 46  2  0  0  0
 46 47  1  0  0  0
 47 48  2  0  0  0
 48 49  1  0  0  0
 49 50  2  0  0  0
  1 21  1  0  0  0
 21 22  2  0  0  0
 21 23  1  0  0  0
 23 25  1  0  0  0
 25 34  1  0  0  0
 34 35  1  0  0  0
 35 36  2  0  0  0
 36 37  1  0  0  0
 37 38  2  0  0  0
 38 39  1  0  0  0
 39 40  2  0  0  0
 25 26  1  0  0  0
 26 27  2  0  0  0
 26 28  1  0  0  0
 28 29  2  0  0  0
 29 30  1  0  0  0
 30 31  2  0  0  0
 31 32  1  0  0  0
 32 33  2  0  0  0
 16 11  1  0  0  0
 50 42  1  0  0  0
 40 35  1  0  0  0
 33 28  1  0  0  0
 50 45  1  0  0  0
  7 10  1  0  0  0
  4  5  1  0  0  0
 44 51  1  0  0  0
 23 24  1  0  0  0
M  END
> <minimizedAffinity>
-10.20967

> <CNNscore>
0.2805974185

> <CNNaffinity>
7.5995988846

> <CNN_VS>
2.1324279308

> <CNNaffinity_variance>
0.5966876745

$$$$
[H]c1c([H])c([H])c(C(=O)N([H])[C@]([H])(C(=O)N([H])[C@]([H])(C(=O)N([H])[C@]([H])(C(=O)c2c([H])c([H])c([H])c([H])c2[H])C([H])([H])c2c([H])c([H])c([H])c([H])c2[H])C([H])([H])c2c([H])n([H])c3c([H])c([H])c([H])c([H])c23)C([H])([H])C([H])(C([H])([H])[H])C([H])([H])[H])c([H])c1[H]


 51 55  0  0  0  0  0  0  0  0999 V2000
  -89.2652   32.8288   -2.9583 C   0  0  0  0  0  0  0  0  0  0  0  0
  -90.5849   30.9995   -3.8415 C   0  0  0  0  0  0  0  0  0  0  0  0
  -89.4216   30.6089   -4.3260 O   0  0  0  0  0  0  0  0  0  0  0  0
  -90.6256   32.1741   -2.9709 N   0  0  0  0  0  0  0  0  0  0  0  0
  -91.3869   32.5681   -2.5077 H   0  0  0  0  0  0  0  0  0  0  0  0
  -91.7211   30.3184   -4.2976 C   0  0  0  0  0  0  0  0  0  0  0  0
  -91.9576   29.1063   -3.6379 N   0  0  0  0  0  0  0  0  0  0  0  0
  -91.1930   28.0202   -3.1294 C   0  0  0  0  0  0  0  0  0  0  0  0
  -90.3826   27.1176   -3.1760 O   0  0  0  0  0  0  0  0  0  0  0  0
  -93.1374   28.8058   -3.5967 H   0  0  0  0  0  0  0  0  0  0  0  0
  -91.5879   28.2803   -1.6238 C   0  0  0  0  0  0  0  0  0  0  0  0
  -91.8287   26.9980   -1.2107 C   0  0  0  0  0  0  0  0  0  0  0  0
  -91.5845   26.6661    0.1752 C   0  0  0  0  0  0  0  0  0  0  0  0
  -91.1267   27.6628    0.9829 C   0  0  0  0  0  0  0  0  0  0  0  0
  -90.9269   28.9597    0.5703 C   0  0  0  0  0  0  0  0  0  0  0  0
  -91.2006   29.2238   -0.8866 C   0  0  0  0  0  0  0  0  0  0  0  0
  -92.8983   31.2089   -3.5902 C   0  0  0  0  0  0  0  0  0  0  0  0
  -94.8107   30.5893   -2.1868 C   0  0  0  0  0  0  0  0  0  0  0  0
  -94.1517   30.4626   -3.5723 C   0  0  0  0  0  0  0  0  0  0  0  0
  -95.0597   30.6697   -4.7139 C   0  0  0  0  0  0  0  0  0  0  0  0
  -88.7895   32.3467   -1.6857 C   0  0  0  0  0  0  0  0  0  0  0  0
  -89.4859   32.4694   -0.6005 O   0  0  0  0  0  0  0  0  0  0  0  0
  -87.5365   31.7107   -1.6596 N   0  0  0  0  0  0  0  0  0  0  0  0
  -86.9784   31.6429   -2.5430 H   0  0  0  0  0  0  0  0  0  0  0  0
  -87.0131   31.0675   -0.5071 C   0  0  0  0  0  0  0  0  0  0  0  0
  -85.9820   31.9406    0.0148 C   0  0  0  0  0  0  0  0  0  0  0  0
  -86.0613   33.1787   -0.2256 O   0  0  0  0  0  0  0  0  0  0  0  0
  -84.8642   31.4483    0.8601 C   0  0  0  0  0  0  0  0  0  0  0  0
  -83.6366   31.4711    0.2261 C   0  0  0  0  0  0  0  0  0  0  0  0
  -82.6354   30.6256    0.6977 C   0  0  0  0  0  0  0  0  0  0  0  0
  -82.8541   29.8152    1.7718 C   0  0  0  0  0  0  0  0  0  0  0  0
  -84.1050   29.8359    2.4017 C   0  0  0  0  0  0  0  0  0  0  0  0
  -85.1024   30.7110    1.9073 C   0  0  0  0  0  0  0  0  0  0  0  0
  -86.4566   29.7415   -1.1296 C   0  0  0  0  0  0  0  0  0  0  0  0
  -87.2189   28.6625   -0.4903 C   0  0  0  0  0  0  0  0  0  0  0  0
  -87.5764   27.6048   -1.3506 C   0  0  0  0  0  0  0  0  0  0  0  0
  -87.9180   26.4024   -0.8300 C   0  0  0  0  0  0  0  0  0  0  0  0
  -87.9039   26.2066    0.5675 C   0  0  0  0  0  0  0  0  0  0  0  0
  -87.5773   27.2737    1.4336 C   0  0  0  0  0  0  0  0  0  0  0  0
  -87.2202   28.5072    0.8876 C   0  0  0  0  0  0  0  0  0  0  0  0
  -89.5809   34.2320   -3.2325 C   0  0  0  0  0  0  0  0  0  0  0  0
  -88.5977   34.9167   -3.9928 C   0  0  0  0  0  0  0  0  0  0  0  0
  -87.2152   35.0487   -3.5084 C   0  0  0  0  0  0  0  0  0  0  0  0
  -86.6304   35.8557   -4.4299 N   0  0  0  0  0  0  0  0  0  0  0  0
  -87.4803   36.1867   -5.3988 C   0  0  0  0  0  0  0  0  0  0  0  0
  -87.1767   36.8752   -6.5298 C   0  0  0  0  0  0  0  0  0  0  0  0
  -88.1844   36.9486   -7.5475 C   0  0  0  0  0  0  0  0  0  0  0  0
  -89.4265   36.3793   -7.3019 C   0  0  0  0  0  0  0  0  0  0  0  0
  -89.6859   35.7185   -6.1555 C   0  0  0  0  0  0  0  0  0  0  0  0
  -88.7094   35.6470   -5.1843 C   0  0  0  0  0  0  0  0  0  0  0  0
  -85.6300   36.2250   -4.2070 H   0  0  0  0  0  0  0  0  0  0  0  0
 18 19  1  0  0  0
 19 20  1  0  0  0
 19 17  1  0  0  0
 17  6  1  0  0  0
  6  7  1  0  0  0
  7  8  1  0  0  0
  8  9  2  0  0  0
  8 11  1  0  0  0
 11 12  2  0  0  0
 12 13  1  0  0  0
 13 14  2  0  0  0
 14 15  1  0  0  0
 15 16  2  0  0  0
  6  2  1  0  0  0
  2  3  2  0  0  0
  2  4  1  0  0  0
  4  1  1  0  0  0
  1 41  1  0  0  0
 41 42  1  0  0  0
 42 43  2  0  0  0
 43 44  1  0  0  0
 44 45  1  0  0  0
 45 46  2  0  0  0
 46 47  1  0  0  0
 47 48  2  0  0  0
 48 49  1  0  0  0
 49 50  2  0  0  0
  1 21  1  0  0  0
 21 22  2  0  0  0
 21 23  1  0  0  0
 23 25  1  0  0  0
 25 34  1  0  0  0
 34 35  1  0  0  0
 35 36  2  0  0  0
 36 37  1  0  0  0
 37 38  2  0  0  0
 38 39  1  0  0  0
 39 40  2  0  0  0
 25 26  1  0  0  0
 26 27  2  0  0  0
 26 28  1  0  0  0
 28 29  2  0  0  0
 29 30  1  0  0  0
 30 31  2  0  0  0
 31 32  1  0  0  0
 32 33  2  0  0  0
 16 11  1  0  0  0
 50 42  1  0  0  0
 40 35  1  0  0  0
 33 28  1  0  0  0
 50 45  1  0  0  0
  7 10  1  0  0  0
  4  5  1  0  0  0
 44 51  1  0  0  0
 23 24  1  0  0  0
M  END
> <minimizedAffinity>
-9.69493

> <CNNscore>
0.2565051913

> <CNNaffinity>
7.1335210800

> <CNN_VS>
1.8297852278

> <CNNaffinity_variance>
0.8672851324

$$$$
[H]c1c([H])c([H])c(C(=O)N([H])[C@]([H])(C(=O)N([H])[C@]([H])(C(=O)N([H])[C@]([H])(C(=O)c2c([H])c([H])c([H])c([H])c2[H])C([H])([H])c2c([H])c([H])c([H])c([H])c2[H])C([H])([H])c2c([H])n([H])c3c([H])c([H])c([H])c([H])c23)C([H])([H])C([H])(C([H])([H])[H])C([H])([H])[H])c([H])c1[H]


 51 55  0  0  0  0  0  0  0  0999 V2000
  -88.0375   29.9167   -1.8828 C   0  0  0  0  0  0  0  0  0  0  0  0
  -88.3335   31.3476   -3.8149 C   0  0  0  0  0  0  0  0  0  0  0  0
  -87.3114   30.6556   -4.2808 O   0  0  0  0  0  0  0  0  0  0  0  0
  -88.9078   30.9711   -2.5234 N   0  0  0  0  0  0  0  0  0  0  0  0
  -89.6763   31.3504   -2.0599 H   0  0  0  0  0  0  0  0  0  0  0  0
  -88.7207   32.4762   -4.5491 C   0  0  0  0  0  0  0  0  0  0  0  0
  -89.9694   32.3475   -5.1692 N   0  0  0  0  0  0  0  0  0  0  0  0
  -91.3355   32.5573   -4.8339 C   0  0  0  0  0  0  0  0  0  0  0  0
  -92.3474   32.4296   -4.1755 O   0  0  0  0  0  0  0  0  0  0  0  0
  -89.9149   31.7699   -6.2404 H   0  0  0  0  0  0  0  0  0  0  0  0
  -91.5494   33.7124   -5.8876 C   0  0  0  0  0  0  0  0  0  0  0  0
  -91.9970   34.7111   -5.0660 C   0  0  0  0  0  0  0  0  0  0  0  0
  -91.7090   36.0805   -5.4302 C   0  0  0  0  0  0  0  0  0  0  0  0
  -91.0043   36.2845   -6.5780 C   0  0  0  0  0  0  0  0  0  0  0  0
  -90.5939   35.2776   -7.4205 C   0  0  0  0  0  0  0  0  0  0  0  0
  -90.9296   33.8808   -6.9699 C   0  0  0  0  0  0  0  0  0  0  0  0
  -89.1607   33.4787   -3.3323 C   0  0  0  0  0  0  0  0  0  0  0  0
  -87.0438   34.3319   -2.4369 C   0  0  0  0  0  0  0  0  0  0  0  0
  -88.2821   34.6429   -3.2969 C   0  0  0  0  0  0  0  0  0  0  0  0
  -87.9953   35.2929   -4.5876 C   0  0  0  0  0  0  0  0  0  0  0  0
  -88.8888   28.7689   -2.0730 C   0  0  0  0  0  0  0  0  0  0  0  0
  -89.1360   28.2841   -3.2484 O   0  0  0  0  0  0  0  0  0  0  0  0
  -89.4353   28.1687   -0.9258 N   0  0  0  0  0  0  0  0  0  0  0  0
  -89.2429   28.5900    0.0133 H   0  0  0  0  0  0  0  0  0  0  0  0
  -90.1720   26.9553   -0.9571 C   0  0  0  0  0  0  0  0  0  0  0  0
  -90.9818   26.9384    0.2436 C   0  0  0  0  0  0  0  0  0  0  0  0
  -92.1103   26.3711    0.2024 O   0  0  0  0  0  0  0  0  0  0  0  0
  -90.5206   27.5161    1.5320 C   0  0  0  0  0  0  0  0  0  0  0  0
  -89.7570   26.6476    2.2885 C   0  0  0  0  0  0  0  0  0  0  0  0
  -89.6739   26.8677    3.6613 C   0  0  0  0  0  0  0  0  0  0  0  0
  -90.3094   27.9265    4.2386 C   0  0  0  0  0  0  0  0  0  0  0  0
  -91.0565   28.7976    3.4355 C   0  0  0  0  0  0  0  0  0  0  0  0
  -91.1174   28.5558    2.0416 C   0  0  0  0  0  0  0  0  0  0  0  0
  -89.0137   25.9000   -0.9478 C   0  0  0  0  0  0  0  0  0  0  0  0
  -89.6668   24.6046   -1.1703 C   0  0  0  0  0  0  0  0  0  0  0  0
  -89.6596   23.7426   -0.0552 C   0  0  0  0  0  0  0  0  0  0  0  0
  -90.5420   22.7174    0.0063 C   0  0  0  0  0  0  0  0  0  0  0  0
  -91.4726   22.5213   -1.0361 C   0  0  0  0  0  0  0  0  0  0  0  0
  -91.4612   23.3638   -2.1699 C   0  0  0  0  0  0  0  0  0  0  0  0
  -90.5525   24.4216   -2.2213 C   0  0  0  0  0  0  0  0  0  0  0  0
  -87.7355   30.5002   -0.5744 C   0  0  0  0  0  0  0  0  0  0  0  0
  -86.4750   30.1249   -0.0415 C   0  0  0  0  0  0  0  0  0  0  0  0
  -86.2444   28.7731    0.4902 C   0  0  0  0  0  0  0  0  0  0  0  0
  -84.9924   28.8444    1.0097 N   0  0  0  0  0  0  0  0  0  0  0  0
  -84.4551   30.0477    0.8257 C   0  0  0  0  0  0  0  0  0  0  0  0
  -83.1769   30.4066    1.1137 C   0  0  0  0  0  0  0  0  0  0  0  0
  -82.7311   31.6876    0.6482 C   0  0  0  0  0  0  0  0  0  0  0  0
  -83.6352   32.5145   -0.0045 C   0  0  0  0  0  0  0  0  0  0  0  0
  -84.9001   32.1196   -0.2539 C   0  0  0  0  0  0  0  0  0  0  0  0
  -85.3194   30.8836    0.1915 C   0  0  0  0  0  0  0  0  0  0  0  0
  -84.6484   27.9967    1.6014 H   0  0  0  0  0  0  0  0  0  0  0  0
 18 19  1  0  0  0
 19 20  1  0  0  0
 19 17  1  0  0  0
 17  6  1  0  0  0
  6  7  1  0  0  0
  7  8  1  0  0  0
  8  9  2  0  0  0
  8 11  1  0  0  0
 11 12  2  0  0  0
 12 13  1  0  0  0
 13 14  2  0  0  0
 14 15  1  0  0  0
 15 16  2  0  0  0
  6  2  1  0  0  0
  2  3  2  0  0  0
  2  4  1  0  0  0
  4  1  1  0  0  0
  1 41  1  0  0  0
 41 42  1  0  0  0
 42 43  2  0  0  0
 43 44  1  0  0  0
 44 45  1  0  0  0
 45 46  2  0  0  0
 46 47  1  0  0  0
 47 48  2  0  0  0
 48 49  1  0  0  0
 49 50  2  0  0  0
  1 21  1  0  0  0
 21 22  2  0  0  0
 21 23  1  0  0  0
 23 25  1  0  0  0
 25 34  1  0  0  0
 34 35  1  0  0  0
 35 36  2  0  0  0
 36 37  1  0  0  0
 37 38  2  0  0  0
 38 39  1  0  0  0
 39 40  2  0  0  0
 25 26  1  0  0  0
 26 27  2  0  0  0
 26 28  1  0  0  0
 28 29  2  0  0  0
 29 30  1  0  0  0
 30 31  2  0  0  0
 31 32  1  0  0  0
 32 33  2  0  0  0
 16 11  1  0  0  0
 50 42  1  0  0  0
 40 35  1  0  0  0
 33 28  1  0  0  0
 50 45  1  0  0  0
  7 10  1  0  0  0
  4  5  1  0  0  0
 44 51  1  0  0  0
 23 24  1  0  0  0
M  END
> <minimizedAffinity>
-9.27682

> <CNNscore>
0.2232153267

> <CNNaffinity>
7.2785935402

> <CNN_VS>
1.6246936321

> <CNNaffinity_variance>
0.3959992826

$$$$
[H]c1c([H])c([H])c(C(=O)N([H])[C@]([H])(C(=O)N([H])[C@]([H])(C(=O)N([H])[C@]([H])(C(=O)c2c([H])c([H])c([H])c([H])c2[H])C([H])([H])c2c([H])c([H])c([H])c([H])c2[H])C([H])([H])c2c([H])n([H])c3c([H])c([H])c([H])c([H])c23)C([H])([H])C([H])(C([H])([H])[H])C([H])([H])[H])c([H])c1[H]


 51 55  0  0  0  0  0  0  0  0999 V2000
  -87.5632   30.8118   -1.6389 C   0  0  0  0  0  0  0  0  0  0  0  0
  -88.6612   31.9796   -3.4551 C   0  0  0  0  0  0  0  0  0  0  0  0
  -87.4674   31.9011   -4.0111 O   0  0  0  0  0  0  0  0  0  0  0  0
  -88.8823   31.3210   -2.1679 N   0  0  0  0  0  0  0  0  0  0  0  0
  -89.7026   31.2535   -1.6465 H   0  0  0  0  0  0  0  0  0  0  0  0
  -89.6042   32.7956   -4.0938 C   0  0  0  0  0  0  0  0  0  0  0  0
  -90.9323   32.4450   -3.8230 N   0  0  0  0  0  0  0  0  0  0  0  0
  -92.1349   32.2402   -4.5542 C   0  0  0  0  0  0  0  0  0  0  0  0
  -93.0252   32.5300   -5.3269 O   0  0  0  0  0  0  0  0  0  0  0  0
  -91.1941   32.4431   -2.6332 H   0  0  0  0  0  0  0  0  0  0  0  0
  -92.2388   30.7055   -4.2013 C   0  0  0  0  0  0  0  0  0  0  0  0
  -92.4359   30.7799   -2.8491 C   0  0  0  0  0  0  0  0  0  0  0  0
  -93.2089   29.7385   -2.2099 C   0  0  0  0  0  0  0  0  0  0  0  0
  -93.6932   28.7448   -3.0058 C   0  0  0  0  0  0  0  0  0  0  0  0
  -93.4556   28.6544   -4.3576 C   0  0  0  0  0  0  0  0  0  0  0  0
  -92.6456   29.7779   -4.9480 C   0  0  0  0  0  0  0  0  0  0  0  0
  -89.5145   34.1339   -3.1556 C   0  0  0  0  0  0  0  0  0  0  0  0
  -87.5097   35.5396   -3.2794 C   0  0  0  0  0  0  0  0  0  0  0  0
  -88.8858   35.2242   -3.8933 C   0  0  0  0  0  0  0  0  0  0  0  0
  -88.9023   35.1227   -5.3630 C   0  0  0  0  0  0  0  0  0  0  0  0
  -87.8970   29.4172   -1.4919 C   0  0  0  0  0  0  0  0  0  0  0  0
  -86.9910   28.4915   -1.4785 O   0  0  0  0  0  0  0  0  0  0  0  0
  -89.2546   29.0870   -1.3403 N   0  0  0  0  0  0  0  0  0  0  0  0
  -89.9736   29.8473   -1.3779 H   0  0  0  0  0  0  0  0  0  0  0  0
  -89.7092   27.7742   -1.0472 C   0  0  0  0  0  0  0  0  0  0  0  0
  -90.1201   27.1934   -2.3088 C   0  0  0  0  0  0  0  0  0  0  0  0
  -90.1816   27.9412   -3.3256 O   0  0  0  0  0  0  0  0  0  0  0  0
  -90.4243   25.7481   -2.4668 C   0  0  0  0  0  0  0  0  0  0  0  0
  -91.6997   25.4970   -2.9359 C   0  0  0  0  0  0  0  0  0  0  0  0
  -92.2625   24.2491   -2.6791 C   0  0  0  0  0  0  0  0  0  0  0  0
  -91.5635   23.2931   -2.0041 C   0  0  0  0  0  0  0  0  0  0  0  0
  -90.2648   23.5777   -1.5632 C   0  0  0  0  0  0  0  0  0  0  0  0
  -89.7133   24.8511   -1.8450 C   0  0  0  0  0  0  0  0  0  0  0  0
  -90.9026   28.0787   -0.0783 C   0  0  0  0  0  0  0  0  0  0  0  0
  -90.3307   28.0210    1.2721 C   0  0  0  0  0  0  0  0  0  0  0  0
  -91.0867   28.6834    2.2602 C   0  0  0  0  0  0  0  0  0  0  0  0
  -90.8955   28.3818    3.5662 C   0  0  0  0  0  0  0  0  0  0  0  0
  -89.9520   27.3993    3.9347 C   0  0  0  0  0  0  0  0  0  0  0  0
  -89.1700   26.7567    2.9493 C   0  0  0  0  0  0  0  0  0  0  0  0
  -89.3789   27.0694    1.6055 C   0  0  0  0  0  0  0  0  0  0  0  0
  -87.2995   31.7103   -0.5133 C   0  0  0  0  0  0  0  0  0  0  0  0
  -85.9233   31.8994   -0.2235 C   0  0  0  0  0  0  0  0  0  0  0  0
  -85.2128   33.1121   -0.6569 C   0  0  0  0  0  0  0  0  0  0  0  0
  -83.9232   32.8662   -0.3121 N   0  0  0  0  0  0  0  0  0  0  0  0
  -83.7947   31.6857    0.2882 C   0  0  0  0  0  0  0  0  0  0  0  0
  -82.6648   31.1987    0.8640 C   0  0  0  0  0  0  0  0  0  0  0  0
  -82.7851   29.9999    1.6418 C   0  0  0  0  0  0  0  0  0  0  0  0
  -84.0190   29.3674    1.7102 C   0  0  0  0  0  0  0  0  0  0  0  0
  -85.1102   29.8816    1.1077 C   0  0  0  0  0  0  0  0  0  0  0  0
  -84.9876   31.0383    0.3668 C   0  0  0  0  0  0  0  0  0  0  0  0
  -83.1687   33.5661   -0.6696 H   0  0  0  0  0  0  0  0  0  0  0  0
 18 19  1  0  0  0
 19 20  1  0  0  0
 19 17  1  0  0  0
 17  6  1  0  0  0
  6  7  1  0  0  0
  7  8  1  0  0  0
  8  9  2  0  0  0
  8 11  1  0  0  0
 11 12  2  0  0  0
 12 13  1  0  0  0
 13 14  2  0  0  0
 14 15  1  0  0  0
 15 16  2  0  0  0
  6  2  1  0  0  0
  2  3  2  0  0  0
  2  4  1  0  0  0
  4  1  1  0  0  0
  1 41  1  0  0  0
 41 42  1  0  0  0
 42 43  2  0  0  0
 43 44  1  0  0  0
 44 45  1  0  0  0
 45 46  2  0  0  0
 46 47  1  0  0  0
 47 48  2  0  0  0
 48 49  1  0  0  0
 49 50  2  0  0  0
  1 21  1  0  0  0
 21 22  2  0  0  0
 21 23  1  0  0  0
 23 25  1  0  0  0
 25 34  1  0  0  0
 34 35  1  0  0  0
 35 36  2  0  0  0
 36 37  1  0  0  0
 37 38  2  0  0  0
 38 39  1  0  0  0
 39 40  2  0  0  0
 25 26  1  0  0  0
 26 27  2  0  0  0
 26 28  1  0  0  0
 28 29  2  0  0  0
 29 30  1  0  0  0
 30 31  2  0  0  0
 31 32  1  0  0  0
 32 33  2  0  0  0
 16 11  1  0  0  0
 50 42  1  0  0  0
 40 35  1  0  0  0
 33 28  1  0  0  0
 50 45  1  0  0  0
  7 10  1  0  0  0
  4  5  1  0  0  0
 44 51  1  0  0  0
 23 24  1  0  0  0
M  END
> <minimizedAffinity>
-9.65037

> <CNNscore>
0.2111068070

> <CNNaffinity>
7.1798505783

> <CNN_VS>
1.5157153606

> <CNNaffinity_variance>
0.8196765780

$$$$
[H]c1c([H])c([H])c(C(=O)N([H])[C@]([H])(C(=O)N([H])[C@]([H])(C(=O)N([H])[C@]([H])(C(=O)c2c([H])c([H])c([H])c([H])c2[H])C([H])([H])c2c([H])c([H])c([H])c([H])c2[H])C([H])([H])c2c([H])n([H])c3c([H])c([H])c([H])c([H])c23)C([H])([H])C([H])(C([H])([H])[H])C([H])([H])[H])c([H])c1[H]


 51 55  0  0  0  0  0  0  0  0999 V2000
  -88.0294   29.8881   -2.0008 C   0  0  0  0  0  0  0  0  0  0  0  0
  -90.1850   28.8720   -1.5660 C   0  0  0  0  0  0  0  0  0  0  0  0
  -90.2359   29.7767   -0.6071 O   0  0  0  0  0  0  0  0  0  0  0  0
  -89.0492   28.8868   -2.4875 N   0  0  0  0  0  0  0  0  0  0  0  0
  -88.8795   28.3191   -3.2610 H   0  0  0  0  0  0  0  0  0  0  0  0
  -91.1773   27.8830   -1.5560 C   0  0  0  0  0  0  0  0  0  0  0  0
  -91.5299   27.4475   -0.2730 N   0  0  0  0  0  0  0  0  0  0  0  0
  -91.5554   26.2236    0.4511 C   0  0  0  0  0  0  0  0  0  0  0  0
  -91.8469   25.0632    0.6564 O   0  0  0  0  0  0  0  0  0  0  0  0
  -92.1050   28.2995    0.3807 H   0  0  0  0  0  0  0  0  0  0  0  0
  -90.4705   26.6760    1.5041 C   0  0  0  0  0  0  0  0  0  0  0  0
  -91.0665   27.8048    1.9975 C   0  0  0  0  0  0  0  0  0  0  0  0
  -90.7979   28.1797    3.3679 C   0  0  0  0  0  0  0  0  0  0  0  0
  -89.9617   27.3751    4.0812 C   0  0  0  0  0  0  0  0  0  0  0  0
  -89.3333   26.2654    3.5658 C   0  0  0  0  0  0  0  0  0  0  0  0
  -89.6669   25.9404    2.1340 C   0  0  0  0  0  0  0  0  0  0  0  0
  -92.5001   28.7943   -1.8708 C   0  0  0  0  0  0  0  0  0  0  0  0
  -92.5142   29.8969   -4.0604 C   0  0  0  0  0  0  0  0  0  0  0  0
  -92.8996   28.6365   -3.2650 C   0  0  0  0  0  0  0  0  0  0  0  0
  -92.5470   27.3609   -3.9125 C   0  0  0  0  0  0  0  0  0  0  0  0
  -88.1285   30.8541   -3.0663 C   0  0  0  0  0  0  0  0  0  0  0  0
  -88.2212   30.4996   -4.3087 O   0  0  0  0  0  0  0  0  0  0  0  0
  -88.1425   32.2137   -2.7108 N   0  0  0  0  0  0  0  0  0  0  0  0
  -88.0422   32.4803   -1.7031 H   0  0  0  0  0  0  0  0  0  0  0  0
  -88.3760   33.2601   -3.6417 C   0  0  0  0  0  0  0  0  0  0  0  0
  -87.3567   34.2595   -3.3964 C   0  0  0  0  0  0  0  0  0  0  0  0
  -86.4014   33.9693   -2.6217 O   0  0  0  0  0  0  0  0  0  0  0  0
  -87.3621   35.5910   -4.0547 C   0  0  0  0  0  0  0  0  0  0  0  0
  -87.8787   36.5996   -3.2639 C   0  0  0  0  0  0  0  0  0  0  0  0
  -88.3745   37.7402   -3.8907 C   0  0  0  0  0  0  0  0  0  0  0  0
  -88.3285   37.8676   -5.2471 C   0  0  0  0  0  0  0  0  0  0  0  0
  -87.7775   36.8329   -6.0137 C   0  0  0  0  0  0  0  0  0  0  0  0
  -87.2728   35.6880   -5.3507 C   0  0  0  0  0  0  0  0  0  0  0  0
  -89.8159   33.7170   -3.2253 C   0  0  0  0  0  0  0  0  0  0  0  0
  -90.4836   34.0868   -4.4789 C   0  0  0  0  0  0  0  0  0  0  0  0
  -91.1385   35.3345   -4.4510 C   0  0  0  0  0  0  0  0  0  0  0  0
  -91.4418   35.9595   -5.6132 C   0  0  0  0  0  0  0  0  0  0  0  0
  -91.0919   35.3692   -6.8463 C   0  0  0  0  0  0  0  0  0  0  0  0
  -90.4644   34.1040   -6.8785 C   0  0  0  0  0  0  0  0  0  0  0  0
  -90.1500   33.4707   -5.6754 C   0  0  0  0  0  0  0  0  0  0  0  0
  -86.8491   29.0551   -1.7623 C   0  0  0  0  0  0  0  0  0  0  0  0
  -86.5543   28.8341   -0.3919 C   0  0  0  0  0  0  0  0  0  0  0  0
  -86.9728   27.5989    0.2880 C   0  0  0  0  0  0  0  0  0  0  0  0
  -86.6280   27.8156    1.5829 N   0  0  0  0  0  0  0  0  0  0  0  0
  -86.0403   28.9989    1.7404 C   0  0  0  0  0  0  0  0  0  0  0  0
  -85.4675   29.4631    2.8814 C   0  0  0  0  0  0  0  0  0  0  0  0
  -84.7032   30.6731    2.7904 C   0  0  0  0  0  0  0  0  0  0  0  0
  -84.6444   31.3377    1.5729 C   0  0  0  0  0  0  0  0  0  0  0  0
  -85.2436   30.8450    0.4700 C   0  0  0  0  0  0  0  0  0  0  0  0
  -85.9714   29.6774    0.5644 C   0  0  0  0  0  0  0  0  0  0  0  0
  -86.9761   27.0926    2.3199 H   0  0  0  0  0  0  0  0  0  0  0  0
 18 19  1  0  0  0
 19 20  1  0  0  0
 19 17  1  0  0  0
 17  6  1  0  0  0
  6  7  1  0  0  0
  7  8  1  0  0  0
  8  9  2  0  0  0
  8 11  1  0  0  0
 11 12  2  0  0  0
 12 13  1  0  0  0
 13 14  2  0  0  0
 14 15  1  0  0  0
 15 16  2  0  0  0
  6  2  1  0  0  0
  2  3  2  0  0  0
  2  4  1  0  0  0
  4  1  1  0  0  0
  1 41  1  0  0  0
 41 42  1  0  0  0
 42 43  2  0  0  0
 43 44  1  0  0  0
 44 45  1  0  0  0
 45 46  2  0  0  0
 46 47  1  0  0  0
 47 48  2  0  0  0
 48 49  1  0  0  0
 49 50  2  0  0  0
  1 21  1  0  0  0
 21 22  2  0  0  0
 21 23  1  0  0  0
 23 25  1  0  0  0
 25 34  1  0  0  0
 34 35  1  0  0  0
 35 36  2  0  0  0
 36 37  1  0  0  0
 37 38  2  0  0  0
 38 39  1  0  0  0
 39 40  2  0  0  0
 25 26  1  0  0  0
 26 27  2  0  0  0
 26 28  1  0  0  0
 28 29  2  0  0  0
 29 30  1  0  0  0
 30 31  2  0  0  0
 31 32  1  0  0  0
 32 33  2  0  0  0
 16 11  1  0  0  0
 50 42  1  0  0  0
 40 35  1  0  0  0
 33 28  1  0  0  0
 50 45  1  0  0  0
  7 10  1  0  0  0
  4  5  1  0  0  0
 44 51  1  0  0  0
 23 24  1  0  0  0
M  END
> <minimizedAffinity>
-8.63046

> <CNNscore>
0.1910709441

> <CNNaffinity>
7.1822485924

> <CNN_VS>
1.3723189831

> <CNNaffinity_variance>
0.5071608424

$$$$
[H]c1c([H])c([H])c(C(=O)N([H])[C@]([H])(C(=O)N([H])[C@]([H])(C(=O)N([H])[C@]([H])(C(=O)c2c([H])c([H])c([H])c([H])c2[H])C([H])([H])c2c([H])c([H])c([H])c([H])c2[H])C([H])([H])c2c([H])n([H])c3c([H])c([H])c([H])c([H])c23)C([H])([H])C([H])(C([H])([H])[H])C([H])([H])[H])c([H])c1[H]


 51 55  0  0  0  0  0  0  0  0999 V2000
  -87.5184   31.1356   -1.9169 C   0  0  0  0  0  0  0  0  0  0  0  0
  -88.4433   32.0477   -3.9616 C   0  0  0  0  0  0  0  0  0  0  0  0
  -87.2902   31.6535   -4.4670 O   0  0  0  0  0  0  0  0  0  0  0  0
  -88.7451   31.7298   -2.5662 N   0  0  0  0  0  0  0  0  0  0  0  0
  -89.5548   31.9140   -2.0565 H   0  0  0  0  0  0  0  0  0  0  0  0
  -89.2504   32.8508   -4.7780 C   0  0  0  0  0  0  0  0  0  0  0  0
  -90.4702   32.2586   -5.1265 N   0  0  0  0  0  0  0  0  0  0  0  0
  -91.7676   32.1147   -4.5618 C   0  0  0  0  0  0  0  0  0  0  0  0
  -92.5786   31.8124   -3.7105 O   0  0  0  0  0  0  0  0  0  0  0  0
  -90.3928   31.5470   -6.1122 H   0  0  0  0  0  0  0  0  0  0  0  0
  -92.4891   32.9581   -5.6837 C   0  0  0  0  0  0  0  0  0  0  0  0
  -93.4934   33.5294   -4.9503 C   0  0  0  0  0  0  0  0  0  0  0  0
  -93.9860   34.8272   -5.3551 C   0  0  0  0  0  0  0  0  0  0  0  0
  -93.4105   35.3980   -6.4498 C   0  0  0  0  0  0  0  0  0  0  0  0
  -92.4304   34.7991   -7.2067 C   0  0  0  0  0  0  0  0  0  0  0  0
  -91.9699   33.4513   -6.7185 C   0  0  0  0  0  0  0  0  0  0  0  0
  -89.8112   33.9195   -3.6722 C   0  0  0  0  0  0  0  0  0  0  0  0
  -88.9035   35.2611   -5.5126 C   0  0  0  0  0  0  0  0  0  0  0  0
  -89.6114   35.2849   -4.1458 C   0  0  0  0  0  0  0  0  0  0  0  0
  -90.7717   36.1891   -4.0623 C   0  0  0  0  0  0  0  0  0  0  0  0
  -87.9867   29.7845   -1.7334 C   0  0  0  0  0  0  0  0  0  0  0  0
  -87.1774   28.7734   -1.7151 O   0  0  0  0  0  0  0  0  0  0  0  0
  -89.3673   29.5950   -1.5514 N   0  0  0  0  0  0  0  0  0  0  0  0
  -90.0075   30.4225   -1.5935 H   0  0  0  0  0  0  0  0  0  0  0  0
  -89.9447   28.3404   -1.2215 C   0  0  0  0  0  0  0  0  0  0  0  0
  -90.5353   27.8296   -2.4414 C   0  0  0  0  0  0  0  0  0  0  0  0
  -90.8595   28.6516   -3.3449 O   0  0  0  0  0  0  0  0  0  0  0  0
  -90.7300   26.3789   -2.6937 C   0  0  0  0  0  0  0  0  0  0  0  0
  -91.8765   26.0883   -3.4083 C   0  0  0  0  0  0  0  0  0  0  0  0
  -92.4148   24.8084   -3.2990 C   0  0  0  0  0  0  0  0  0  0  0  0
  -91.8120   23.8609   -2.5263 C   0  0  0  0  0  0  0  0  0  0  0  0
  -90.6389   24.1868   -1.8338 C   0  0  0  0  0  0  0  0  0  0  0  0
  -90.1082   25.4926   -1.9692 C   0  0  0  0  0  0  0  0  0  0  0  0
  -90.9998   28.7689   -0.1451 C   0  0  0  0  0  0  0  0  0  0  0  0
  -90.3571   28.5177    1.1502 C   0  0  0  0  0  0  0  0  0  0  0  0
  -91.1649   28.7942    2.2715 C   0  0  0  0  0  0  0  0  0  0  0  0
  -90.8559   28.2498    3.4721 C   0  0  0  0  0  0  0  0  0  0  0  0
  -89.7367   27.3992    3.5963 C   0  0  0  0  0  0  0  0  0  0  0  0
  -88.9067   27.1458    2.4817 C   0  0  0  0  0  0  0  0  0  0  0  0
  -89.2370   27.7062    1.2471 C   0  0  0  0  0  0  0  0  0  0  0  0
  -87.2553   32.0641   -0.8159 C   0  0  0  0  0  0  0  0  0  0  0  0
  -85.8827   32.2100   -0.4869 C   0  0  0  0  0  0  0  0  0  0  0  0
  -85.1138   33.3837   -0.9280 C   0  0  0  0  0  0  0  0  0  0  0  0
  -83.8457   33.0996   -0.5358 N   0  0  0  0  0  0  0  0  0  0  0  0
  -83.7807   31.9317    0.0984 C   0  0  0  0  0  0  0  0  0  0  0  0
  -82.6885   31.4190    0.7226 C   0  0  0  0  0  0  0  0  0  0  0  0
  -82.8781   30.2467    1.5264 C   0  0  0  0  0  0  0  0  0  0  0  0
  -84.1365   29.6622    1.5713 C   0  0  0  0  0  0  0  0  0  0  0  0
  -85.1882   30.2000    0.9210 C   0  0  0  0  0  0  0  0  0  0  0  0
  -84.9990   31.3311    0.1551 C   0  0  0  0  0  0  0  0  0  0  0  0
  -83.0546   33.7615   -0.8866 H   0  0  0  0  0  0  0  0  0  0  0  0
 18 19  1  0  0  0
 19 20  1  0  0  0
 19 17  1  0  0  0
 17  6  1  0  0  0
  6  7  1  0  0  0
  7  8  1  0  0  0
  8  9  2  0  0  0
  8 11  1  0  0  0
 11 12  2  0  0  0
 12 13  1  0  0  0
 13 14  2  0  0  0
 14 15  1  0  0  0
 15 16  2  0  0  0
  6  2  1  0  0  0
  2  3  2  0  0  0
  2  4  1  0  0  0
  4  1  1  0  0  0
  1 41  1  0  0  0
 41 42  1  0  0  0
 42 43  2  0  0  0
 43 44  1  0  0  0
 44 45  1  0  0  0
 45 46  2  0  0  0
 46 47  1  0  0  0
 47 48  2  0  0  0
 48 49  1  0  0  0
 49 50  2  0  0  0
  1 21  1  0  0  0
 21 22  2  0  0  0
 21 23  1  0  0  0
 23 25  1  0  0  0
 25 34  1  0  0  0
 34 35  1  0  0  0
 35 36  2  0  0  0
 36 37  1  0  0  0
 37 38  2  0  0  0
 38 39  1  0  0  0
 39 40  2  0  0  0
 25 26  1  0  0  0
 26 27  2  0  0  0
 26 28  1  0  0  0
 28 29  2  0  0  0
 29 30  1  0  0  0
 30 31  2  0  0  0
 31 32  1  0  0  0
 32 33  2  0  0  0
 16 11  1  0  0  0
 50 42  1  0  0  0
 40 35  1  0  0  0
 33 28  1  0  0  0
 50 45  1  0  0  0
  7 10  1  0  0  0
  4  5  1  0  0  0
 44 51  1  0  0  0
 23 24  1  0  0  0
M  END
> <minimizedAffinity>
-9.40391

> <CNNscore>
0.1631219685

> <CNNaffinity>
7.0855498314

> <CNN_VS>
1.1558088064

> <CNNaffinity_variance>
0.5263878107

$$$$
[H]c1c([H])c([H])c(C(=O)N([H])[C@]([H])(C(=O)N([H])[C@]([H])(C(=O)N([H])[C@]([H])(C(=O)c2c([H])c([H])c([H])c([H])c2[H])C([H])([H])c2c([H])c([H])c([H])c([H])c2[H])C([H])([H])c2c([H])n([H])c3c([H])c([H])c([H])c([H])c23)C([H])([H])C([H])(C([H])([H])[H])C([H])([H])[H])c([H])c1[H]


 51 55  0  0  0  0  0  0  0  0999 V2000
  -89.7239   32.1195   -2.6342 C   0  0  0  0  0  0  0  0  0  0  0  0
  -91.4074   30.6858   -3.6233 C   0  0  0  0  0  0  0  0  0  0  0  0
  -90.4181   30.3553   -4.4311 O   0  0  0  0  0  0  0  0  0  0  0  0
  -91.1317   31.5893   -2.5065 N   0  0  0  0  0  0  0  0  0  0  0  0
  -91.7336   31.9002   -1.8062 H   0  0  0  0  0  0  0  0  0  0  0  0
  -92.6864   30.2311   -3.9702 C   0  0  0  0  0  0  0  0  0  0  0  0
  -93.5119   31.2228   -4.5136 N   0  0  0  0  0  0  0  0  0  0  0  0
  -93.9764   32.5175   -4.1521 C   0  0  0  0  0  0  0  0  0  0  0  0
  -94.5051   33.3465   -3.4401 O   0  0  0  0  0  0  0  0  0  0  0  0
  -94.1243   30.8496   -5.4983 H   0  0  0  0  0  0  0  0  0  0  0  0
  -93.2452   33.2521   -5.3421 C   0  0  0  0  0  0  0  0  0  0  0  0
  -93.4477   34.5571   -4.9833 C   0  0  0  0  0  0  0  0  0  0  0  0
  -92.4570   35.5368   -5.3698 C   0  0  0  0  0  0  0  0  0  0  0  0
  -91.3789   35.0889   -6.0716 C   0  0  0  0  0  0  0  0  0  0  0  0
  -91.2031   33.7825   -6.4649 C   0  0  0  0  0  0  0  0  0  0  0  0
  -92.2761   32.8240   -6.0213 C   0  0  0  0  0  0  0  0  0  0  0  0
  -92.3434   29.4226   -5.3516 C   0  0  0  0  0  0  0  0  0  0  0  0
  -92.7868   27.4366   -6.7189 C   0  0  0  0  0  0  0  0  0  0  0  0
  -93.0869   28.1682   -5.3982 C   0  0  0  0  0  0  0  0  0  0  0  0
  -93.0316   27.3229   -4.1927 C   0  0  0  0  0  0  0  0  0  0  0  0
  -89.1649   31.5837   -1.4183 C   0  0  0  0  0  0  0  0  0  0  0  0
  -88.8719   32.3372   -0.4063 O   0  0  0  0  0  0  0  0  0  0  0  0
  -88.9628   30.1944   -1.3538 N   0  0  0  0  0  0  0  0  0  0  0  0
  -89.1834   29.6056   -2.1911 H   0  0  0  0  0  0  0  0  0  0  0  0
  -88.5534   29.5206   -0.1729 C   0  0  0  0  0  0  0  0  0  0  0  0
  -87.1255   29.3113   -0.2966 C   0  0  0  0  0  0  0  0  0  0  0  0
  -86.6861   28.7515   -1.3408 O   0  0  0  0  0  0  0  0  0  0  0  0
  -86.1543   29.7706    0.7291 C   0  0  0  0  0  0  0  0  0  0  0  0
  -85.6350   31.0267    0.4792 C   0  0  0  0  0  0  0  0  0  0  0  0
  -84.4133   31.3619    1.0578 C   0  0  0  0  0  0  0  0  0  0  0  0
  -83.7598   30.4824    1.8688 C   0  0  0  0  0  0  0  0  0  0  0  0
  -84.3285   29.2264    2.1158 C   0  0  0  0  0  0  0  0  0  0  0  0
  -85.5755   28.9143    1.5219 C   0  0  0  0  0  0  0  0  0  0  0  0
  -89.3921   28.2008   -0.2738 C   0  0  0  0  0  0  0  0  0  0  0  0
  -89.9481   27.9905    1.0681 C   0  0  0  0  0  0  0  0  0  0  0  0
  -89.1027   27.2904    1.9524 C   0  0  0  0  0  0  0  0  0  0  0  0
  -89.3117   27.3732    3.2876 C   0  0  0  0  0  0  0  0  0  0  0  0
  -90.3640   28.1672    3.7912 C   0  0  0  0  0  0  0  0  0  0  0  0
  -91.2327   28.8442    2.9065 C   0  0  0  0  0  0  0  0  0  0  0  0
  -91.0053   28.7582    1.5324 C   0  0  0  0  0  0  0  0  0  0  0  0
  -89.9386   33.5481   -2.8728 C   0  0  0  0  0  0  0  0  0  0  0  0
  -88.8309   34.2188   -3.4533 C   0  0  0  0  0  0  0  0  0  0  0  0
  -87.6206   33.4854   -3.8542 C   0  0  0  0  0  0  0  0  0  0  0  0
  -86.7651   34.4675   -4.2365 N   0  0  0  0  0  0  0  0  0  0  0  0
  -87.3262   35.6699   -4.1377 C   0  0  0  0  0  0  0  0  0  0  0  0
  -86.7853   36.8431   -4.5578 C   0  0  0  0  0  0  0  0  0  0  0  0
  -87.6338   37.9992   -4.5537 C   0  0  0  0  0  0  0  0  0  0  0  0
  -88.9269   37.8788   -4.0630 C   0  0  0  0  0  0  0  0  0  0  0  0
  -89.4146   36.6943   -3.6418 C   0  0  0  0  0  0  0  0  0  0  0  0
  -88.5942   35.5858   -3.6548 C   0  0  0  0  0  0  0  0  0  0  0  0
  -85.7337   34.1803   -4.4385 H   0  0  0  0  0  0  0  0  0  0  0  0
 18 19  1  0  0  0
 19 20  1  0  0  0
 19 17  1  0  0  0
 17  6  1  0  0  0
  6  7  1  0  0  0
  7  8  1  0  0  0
  8  9  2  0  0  0
  8 11  1  0  0  0
 11 12  2  0  0  0
 12 13  1  0  0  0
 13 14  2  0  0  0
 14 15  1  0  0  0
 15 16  2  0  0  0
  6  2  1  0  0  0
  2  3  2  0  0  0
  2  4  1  0  0  0
  4  1  1  0  0  0
  1 41  1  0  0  0
 41 42  1  0  0  0
 42 43  2  0  0  0
 43 44  1  0  0  0
 44 45  1  0  0  0
 45 46  2  0  0  0
 46 47  1  0  0  0
 47 48  2  0  0  0
 48 49  1  0  0  0
 49 50  2  0  0  0
  1 21  1  0  0  0
 21 22  2  0  0  0
 21 23  1  0  0  0
 23 25  1  0  0  0
 25 34  1  0  0  0
 34 35  1  0  0  0
 35 36  2  0  0  0
 36 37  1  0  0  0
 37 38  2  0  0  0
 38 39  1  0  0  0
 39 40  2  0  0  0
 25 26  1  0  0  0
 26 27  2  0  0  0
 26 28  1  0  0  0
 28 29  2  0  0  0
 29 30  1  0  0  0
 30 31  2  0  0  0
 31 32  1  0  0  0
 32 33  2  0  0  0
 16 11  1  0  0  0
 50 42  1  0  0  0
 40 35  1  0  0  0
 33 28  1  0  0  0
 50 45  1  0  0  0
  7 10  1  0  0  0
  4  5  1  0  0  0
 44 51  1  0  0  0
 23 24  1  0  0  0
M  END
> <minimizedAffinity>
-8.64994

> <CNNscore>
0.1623977423

> <CNNaffinity>
6.7443914413

> <CNN_VS>
1.0952739716

> <CNNaffinity_variance>
0.8477019072

$$$$
[H]c1c([H])c([H])c(C(=O)N([H])[C@]([H])(C(=O)N([H])[C@]([H])(C(=O)N([H])[C@]([H])(C(=O)c2c([H])c([H])c([H])c([H])c2[H])C([H])([H])c2c([H])c([H])c([H])c([H])c2[H])C([H])([H])c2c([H])n([H])c3c([H])c([H])c([H])c([H])c23)C([H])([H])C([H])(C([H])([H])[H])C([H])([H])[H])c([H])c1[H]


 51 55  0  0  0  0  0  0  0  0999 V2000
  -87.8485   30.5210   -0.8097 C   0  0  0  0  0  0  0  0  0  0  0  0
  -88.7688   30.9161   -3.0153 C   0  0  0  0  0  0  0  0  0  0  0  0
  -87.8386   30.0546   -3.3799 O   0  0  0  0  0  0  0  0  0  0  0  0
  -88.9524   31.1923   -1.5907 N   0  0  0  0  0  0  0  0  0  0  0  0
  -89.6090   31.7668   -1.1570 H   0  0  0  0  0  0  0  0  0  0  0  0
  -89.4396   31.5948   -4.0412 C   0  0  0  0  0  0  0  0  0  0  0  0
  -90.8348   31.5405   -3.9383 N   0  0  0  0  0  0  0  0  0  0  0  0
  -91.9356   31.1753   -4.7615 C   0  0  0  0  0  0  0  0  0  0  0  0
  -92.6346   31.2022   -5.7537 O   0  0  0  0  0  0  0  0  0  0  0  0
  -91.2619   32.0756   -2.9307 H   0  0  0  0  0  0  0  0  0  0  0  0
  -92.3745   29.9599   -3.8556 C   0  0  0  0  0  0  0  0  0  0  0  0
  -92.6024   29.0112   -4.8152 C   0  0  0  0  0  0  0  0  0  0  0  0
  -92.3885   27.6229   -4.4724 C   0  0  0  0  0  0  0  0  0  0  0  0
  -91.9703   27.3518   -3.2047 C   0  0  0  0  0  0  0  0  0  0  0  0
  -91.7836   28.3074   -2.2330 C   0  0  0  0  0  0  0  0  0  0  0  0
  -92.0239   29.7283   -2.6693 C   0  0  0  0  0  0  0  0  0  0  0  0
  -89.2245   33.1431   -3.5555 C   0  0  0  0  0  0  0  0  0  0  0  0
  -88.1983   34.6648   -5.1810 C   0  0  0  0  0  0  0  0  0  0  0  0
  -87.9493   33.6524   -4.0484 C   0  0  0  0  0  0  0  0  0  0  0  0
  -86.9737   34.0839   -3.0322 C   0  0  0  0  0  0  0  0  0  0  0  0
  -88.6154   29.4758   -0.1791 C   0  0  0  0  0  0  0  0  0  0  0  0
  -89.7770   29.6990    0.3488 O   0  0  0  0  0  0  0  0  0  0  0  0
  -88.0666   28.1820   -0.1718 N   0  0  0  0  0  0  0  0  0  0  0  0
  -87.1159   28.0269   -0.5823 H   0  0  0  0  0  0  0  0  0  0  0  0
  -88.7724   27.0388    0.2876 C   0  0  0  0  0  0  0  0  0  0  0  0
  -88.1106   26.6117    1.5031 C   0  0  0  0  0  0  0  0  0  0  0  0
  -86.9016   26.2499    1.4365 O   0  0  0  0  0  0  0  0  0  0  0  0
  -88.7783   26.6279    2.8298 C   0  0  0  0  0  0  0  0  0  0  0  0
  -89.2218   25.3863    3.2436 C   0  0  0  0  0  0  0  0  0  0  0  0
  -90.2449   25.3326    4.1872 C   0  0  0  0  0  0  0  0  0  0  0  0
  -90.7770   26.4753    4.7062 C   0  0  0  0  0  0  0  0  0  0  0  0
  -90.2862   27.7153    4.2779 C   0  0  0  0  0  0  0  0  0  0  0  0
  -89.2399   27.7413    3.3240 C   0  0  0  0  0  0  0  0  0  0  0  0
  -88.5691   26.0563   -0.9161 C   0  0  0  0  0  0  0  0  0  0  0  0
  -89.7317   25.1610   -0.8871 C   0  0  0  0  0  0  0  0  0  0  0  0
  -90.7940   25.6020   -0.0724 C   0  0  0  0  0  0  0  0  0  0  0  0
  -92.0369   25.0983   -0.2591 C   0  0  0  0  0  0  0  0  0  0  0  0
  -92.2691   24.1452   -1.2735 C   0  0  0  0  0  0  0  0  0  0  0  0
  -91.2006   23.6774   -2.0704 C   0  0  0  0  0  0  0  0  0  0  0  0
  -89.9245   24.2072   -1.8749 C   0  0  0  0  0  0  0  0  0  0  0  0
  -87.2421   31.6387   -0.0840 C   0  0  0  0  0  0  0  0  0  0  0  0
  -85.8522   31.4932    0.1623 C   0  0  0  0  0  0  0  0  0  0  0  0
  -84.8719   32.4125   -0.4355 C   0  0  0  0  0  0  0  0  0  0  0  0
  -83.6759   31.8804   -0.0765 N   0  0  0  0  0  0  0  0  0  0  0  0
  -83.8308   30.7919    0.6729 C   0  0  0  0  0  0  0  0  0  0  0  0
  -82.8408   30.1000    1.2947 C   0  0  0  0  0  0  0  0  0  0  0  0
  -83.2323   29.0814    2.2251 C   0  0  0  0  0  0  0  0  0  0  0  0
  -84.5836   28.8097    2.3908 C   0  0  0  0  0  0  0  0  0  0  0  0
  -85.5304   29.5141    1.7385 C   0  0  0  0  0  0  0  0  0  0  0  0
  -85.1459   30.4964    0.8501 C   0  0  0  0  0  0  0  0  0  0  0  0
  -82.7829   32.3070   -0.5320 H   0  0  0  0  0  0  0  0  0  0  0  0
 18 19  1  0  0  0
 19 20  1  0  0  0
 19 17  1  0  0  0
 17  6  1  0  0  0
  6  7  1  0  0  0
  7  8  1  0  0  0
  8  9  2  0  0  0
  8 11  1  0  0  0
 11 12  2  0  0  0
 12 13  1  0  0  0
 13 14  2  0  0  0
 14 15  1  0  0  0
 15 16  2  0  0  0
  6  2  1  0  0  0
  2  3  2  0  0  0
  2  4  1  0  0  0
  4  1  1  0  0  0
  1 41  1  0  0  0
 41 42  1  0  0  0
 42 43  2  0  0  0
 43 44  1  0  0  0
 44 45  1  0  0  0
 45 46  2  0  0  0
 46 47  1  0  0  0
 47 48  2  0  0  0
 48 49  1  0  0  0
 49 50  2  0  0  0
  1 21  1  0  0  0
 21 22  2  0  0  0
 21 23  1  0  0  0
 23 25  1  0  0  0
 25 34  1  0  0  0
 34 35  1  0  0  0
 35 36  2  0  0  0
 36 37  1  0  0  0
 37 38  2  0  0  0
 38 39  1  0  0  0
 39 40  2  0  0  0
 25 26  1  0  0  0
 26 27  2  0  0  0
 26 28  1  0  0  0
 28 29  2  0  0  0
 29 30  1  0  0  0
 30 31  2  0  0  0
 31 32  1  0  0  0
 32 33  2  0  0  0
 16 11  1  0  0  0
 50 42  1  0  0  0
 40 35  1  0  0  0
 33 28  1  0  0  0
 50 45  1  0  0  0
  7 10  1  0  0  0
  4  5  1  0  0  0
 44 51  1  0  0  0
 23 24  1  0  0  0
M  END
> <minimizedAffinity>
-9.39718

> <CNNscore>
0.1621760279

> <CNNaffinity>
7.3761506081

> <CNN_VS>
1.1962348223

> <CNNaffinity_variance>
0.5976516604

$$$$
[H]N=C(N([H])[H])N([H])C([H])([H])C([H])([H])C([H])([H])[C@@]([H])(C(=O)c1nc2c([H])c([H])c([H])c([H])c2s1)N([H])C(=O)[C@@]([H])(N([H])C(=O)C([H])([H])[H])C([H])([H])C([H])(C([H])([H])[H])C([H])([H])[H]


 37 38  0  0  0  0  0  0  0  0999 V2000
  -88.2217   30.0517   -2.0604 C   0  0  0  0  0  0  0  0  0  0  0  0
  -86.5854   29.8800   -0.1833 C   0  0  0  0  0  0  0  0  0  0  0  0
  -86.5443   28.6322   -0.4204 O   0  0  0  0  0  0  0  0  0  0  0  0
  -87.4086   30.6875   -0.9600 N   0  0  0  0  0  0  0  0  0  0  0  0
  -87.5094   31.6980   -0.8441 H   0  0  0  0  0  0  0  0  0  0  0  0
  -85.7321   30.4176    0.9371 C   0  0  0  0  0  0  0  0  0  0  0  0
  -84.5639   29.5750    1.0939 N   0  0  0  0  0  0  0  0  0  0  0  0
  -84.2674   28.9647    2.3206 C   0  0  0  0  0  0  0  0  0  0  0  0
  -83.0798   28.0944    2.5169 C   0  0  0  0  0  0  0  0  0  0  0  0
  -85.0277   29.1508    3.3063 O   0  0  0  0  0  0  0  0  0  0  0  0
  -83.9321   29.4183    0.2826 H   0  0  0  0  0  0  0  0  0  0  0  0
  -85.3138   31.8100    0.5100 C   0  0  0  0  0  0  0  0  0  0  0  0
  -83.9251   33.1209   -0.9801 C   0  0  0  0  0  0  0  0  0  0  0  0
  -83.9522   31.8656   -0.0978 C   0  0  0  0  0  0  0  0  0  0  0  0
  -82.9027   32.0830    0.9615 C   0  0  0  0  0  0  0  0  0  0  0  0
  -88.0343   30.8545   -3.2664 C   0  0  0  0  0  0  0  0  0  0  0  0
  -87.7072   30.3016   -4.3772 O   0  0  0  0  0  0  0  0  0  0  0  0
  -88.2035   32.3178   -3.3395 C   0  0  0  0  0  0  0  0  0  0  0  0
  -89.2748   33.0140   -3.6634 N   0  0  0  0  0  0  0  0  0  0  0  0
  -89.2276   34.3144   -3.6708 C   0  0  0  0  0  0  0  0  0  0  0  0
  -90.2769   35.2002   -3.9928 C   0  0  0  0  0  0  0  0  0  0  0  0
  -90.0975   36.5414   -3.9633 C   0  0  0  0  0  0  0  0  0  0  0  0
  -88.9124   37.1449   -3.6272 C   0  0  0  0  0  0  0  0  0  0  0  0
  -87.8633   36.3044   -3.3060 C   0  0  0  0  0  0  0  0  0  0  0  0
  -88.0451   34.9136   -3.3354 C   0  0  0  0  0  0  0  0  0  0  0  0
  -87.0537   33.5360   -3.0236 S   0  0  0  0  0  0  0  0  0  0  0  0
  -89.5962   30.1144   -1.5132 C   0  0  0  0  0  0  0  0  0  0  0  0
  -90.5891   29.0677   -1.6797 C   0  0  0  0  0  0  0  0  0  0  0  0
  -90.2405   27.7185   -2.1625 C   0  0  0  0  0  0  0  0  0  0  0  0
  -89.7363   26.9875   -0.9714 N   0  0  0  0  0  0  0  0  0  0  0  0
  -90.0831   27.3103   -0.0499 H   0  0  0  0  0  0  0  0  0  0  0  0
  -88.8369   25.9138   -1.1111 C   0  0  0  0  0  0  0  0  0  0  0  0
  -87.5095   26.1628   -1.5460 N   0  0  0  0  0  0  0  0  0  0  0  0
  -89.2665   24.7197   -0.8317 N   0  0  0  0  0  0  0  0  0  0  0  0
  -87.0373   25.5188   -2.2087 H   0  0  0  0  0  0  0  0  0  0  0  0
  -86.9941   26.9966   -1.2035 H   0  0  0  0  0  0  0  0  0  0  0  0
  -88.6309   23.9001   -0.9228 H   0  0  0  0  0  0  0  0  0  0  0  0
 13 14  1  0  0  0
 14 15  1  0  0  0
 14 12  1  0  0  0
 12  6  1  0  0  0
  6  7  1  0  0  0
  7  8  1  0  0  0
  8  9  1  0  0  0
  8 10  2  0  0  0
  6  2  1  0  0  0
  2  3  2  0  0  0
  2  4  1  0  0  0
  4  1  1  0  0  0
  1 27  1  0  0  0
 27 28  1  0  0  0
 28 29  1  0  0  0
 29 30  1  0  0  0
 30 32  1  0  0  0
 32 33  1  0  0  0
 32 34  2  0  0  0
  1 16  1  0  0  0
 16 17  2  0  0  0
 16 18  1  0  0  0
 18 19  2  0  0  0
 19 20  1  0  0  0
 20 21  2  0  0  0
 21 22  1  0  0  0
 22 23  2  0  0  0
 23 24  1  0  0  0
 24 25  2  0  0  0
 25 26  1  0  0  0
 26 18  1  0  0  0
 25 20  1  0  0  0
  7 11  1  0  0  0
  4  5  1  0  0  0
 30 31  1  0  0  0
 33 35  1  0  0  0
 33 36  1  0  0  0
 34 37  1  0  0  0
M  END
> <minimizedAffinity>
-7.58216

> <CNNscore>
0.3904970288

> <CNNaffinity>
6.5375542641

> <CNN_VS>
2.5528955460

> <CNNaffinity_variance>
0.4672186971

$$$$
[H]N=C(N([H])[H])N([H])C([H])([H])C([H])([H])C([H])([H])[C@@]([H])(C(=O)c1nc2c([H])c([H])c([H])c([H])c2s1)N([H])C(=O)[C@@]([H])(N([H])C(=O)C([H])([H])[H])C([H])([H])C([H])(C([H])([H])[H])C([H])([H])[H]


 37 38  0  0  0  0  0  0  0  0999 V2000
  -87.7246   27.5851    1.4350 C   0  0  0  0  0  0  0  0  0  0  0  0
  -88.6373   28.4004   -0.7404 C   0  0  0  0  0  0  0  0  0  0  0  0
  -89.1482   29.3648   -0.0895 O   0  0  0  0  0  0  0  0  0  0  0  0
  -87.8972   27.4423   -0.0569 N   0  0  0  0  0  0  0  0  0  0  0  0
  -87.4507   26.6323   -0.4922 H   0  0  0  0  0  0  0  0  0  0  0  0
  -88.8657   28.3498   -2.2297 C   0  0  0  0  0  0  0  0  0  0  0  0
  -90.2073   28.8118   -2.5228 N   0  0  0  0  0  0  0  0  0  0  0  0
  -91.1416   27.9781   -3.1529 C   0  0  0  0  0  0  0  0  0  0  0  0
  -92.5251   28.4178   -3.4674 C   0  0  0  0  0  0  0  0  0  0  0  0
  -90.8118   26.8060   -3.4720 O   0  0  0  0  0  0  0  0  0  0  0  0
  -90.4848   29.7797   -2.2615 H   0  0  0  0  0  0  0  0  0  0  0  0
  -87.8478   29.2927   -2.8388 C   0  0  0  0  0  0  0  0  0  0  0  0
  -88.0182   31.6561   -2.3362 C   0  0  0  0  0  0  0  0  0  0  0  0
  -88.4376   30.5700   -3.3359 C   0  0  0  0  0  0  0  0  0  0  0  0
  -87.8246   30.9640   -4.6548 C   0  0  0  0  0  0  0  0  0  0  0  0
  -86.2937   27.7056    1.7033 C   0  0  0  0  0  0  0  0  0  0  0  0
  -85.6546   26.7587    2.2874 O   0  0  0  0  0  0  0  0  0  0  0  0
  -85.4631   28.8688    1.3393 C   0  0  0  0  0  0  0  0  0  0  0  0
  -85.7925   29.9378    0.6422 N   0  0  0  0  0  0  0  0  0  0  0  0
  -84.9099   30.8686    0.4230 C   0  0  0  0  0  0  0  0  0  0  0  0
  -85.0994   32.0652   -0.2993 C   0  0  0  0  0  0  0  0  0  0  0  0
  -84.0934   32.9568   -0.4572 C   0  0  0  0  0  0  0  0  0  0  0  0
  -82.8332   32.7834    0.0562 C   0  0  0  0  0  0  0  0  0  0  0  0
  -82.6144   31.6202    0.7699 C   0  0  0  0  0  0  0  0  0  0  0  0
  -83.6545   30.6933    0.9358 C   0  0  0  0  0  0  0  0  0  0  0  0
  -83.8279   29.1653    1.7186 S   0  0  0  0  0  0  0  0  0  0  0  0
  -88.3201   26.3281    1.9431 C   0  0  0  0  0  0  0  0  0  0  0  0
  -89.7477   26.0691    2.0066 C   0  0  0  0  0  0  0  0  0  0  0  0
  -90.3283   24.7580    1.6621 C   0  0  0  0  0  0  0  0  0  0  0  0
  -90.4990   24.7736    0.1864 N   0  0  0  0  0  0  0  0  0  0  0  0
  -91.3439   25.2514   -0.1762 H   0  0  0  0  0  0  0  0  0  0  0  0
  -89.5486   24.1672   -0.6565 C   0  0  0  0  0  0  0  0  0  0  0  0
  -89.1467   22.8286   -0.4114 N   0  0  0  0  0  0  0  0  0  0  0  0
  -89.0708   24.8695   -1.6397 N   0  0  0  0  0  0  0  0  0  0  0  0
  -88.1553   22.5423   -0.5217 H   0  0  0  0  0  0  0  0  0  0  0  0
  -89.8445   22.1180   -0.1177 H   0  0  0  0  0  0  0  0  0  0  0  0
  -88.3660   24.4556   -2.2847 H   0  0  0  0  0  0  0  0  0  0  0  0
 13 14  1  0  0  0
 14 15  1  0  0  0
 14 12  1  0  0  0
 12  6  1  0  0  0
  6  7  1  0  0  0
  7  8  1  0  0  0
  8  9  1  0  0  0
  8 10  2  0  0  0
  6  2  1  0  0  0
  2  3  2  0  0  0
  2  4  1  0  0  0
  4  1  1  0  0  0
  1 27  1  0  0  0
 27 28  1  0  0  0
 28 29  1  0  0  0
 29 30  1  0  0  0
 30 32  1  0  0  0
 32 33  1  0  0  0
 32 34  2  0  0  0
  1 16  1  0  0  0
 16 17  2  0  0  0
 16 18  1  0  0  0
 18 19  2  0  0  0
 19 20  1  0  0  0
 20 21  2  0  0  0
 21 22  1  0  0  0
 22 23  2  0  0  0
 23 24  1  0  0  0
 24 25  2  0  0  0
 25 26  1  0  0  0
 26 18  1  0  0  0
 25 20  1  0  0  0
  7 11  1  0  0  0
  4  5  1  0  0  0
 30 31  1  0  0  0
 33 35  1  0  0  0
 33 36  1  0  0  0
 34 37  1  0  0  0
M  END
> <minimizedAffinity>
-7.50328

> <CNNscore>
0.3228558600

> <CNNaffinity>
6.5996179581

> <CNN_VS>
2.1307253838

> <CNNaffinity_variance>
0.2202126235

$$$$
[H]N=C(N([H])[H])N([H])C([H])([H])C([H])([H])C([H])([H])[C@@]([H])(C(=O)c1nc2c([H])c([H])c([H])c([H])c2s1)N([H])C(=O)[C@@]([H])(N([H])C(=O)C([H])([H])[H])C([H])([H])C([H])(C([H])([H])[H])C([H])([H])[H]


 37 38  0  0  0  0  0  0  0  0999 V2000
  -88.6336   27.5667    1.0677 C   0  0  0  0  0  0  0  0  0  0  0  0
  -89.4720   29.5241   -0.2346 C   0  0  0  0  0  0  0  0  0  0  0  0
  -90.4179   29.5979    0.6108 O   0  0  0  0  0  0  0  0  0  0  0  0
  -88.5153   28.5257   -0.0910 N   0  0  0  0  0  0  0  0  0  0  0  0
  -87.7214   28.3858   -0.7194 H   0  0  0  0  0  0  0  0  0  0  0  0
  -89.4418   30.5321   -1.3551 C   0  0  0  0  0  0  0  0  0  0  0  0
  -88.1932   31.2653   -1.3041 N   0  0  0  0  0  0  0  0  0  0  0  0
  -88.1342   32.6247   -1.6415 C   0  0  0  0  0  0  0  0  0  0  0  0
  -86.8726   33.4073   -1.5996 C   0  0  0  0  0  0  0  0  0  0  0  0
  -89.1838   33.2222   -1.9966 O   0  0  0  0  0  0  0  0  0  0  0  0
  -87.3230   30.7762   -1.0118 H   0  0  0  0  0  0  0  0  0  0  0  0
  -89.5204   29.7301   -2.6384 C   0  0  0  0  0  0  0  0  0  0  0  0
  -91.5466   28.4708   -3.0581 C   0  0  0  0  0  0  0  0  0  0  0  0
  -90.8476   29.8126   -3.3152 C   0  0  0  0  0  0  0  0  0  0  0  0
  -91.7143   30.8605   -2.6659 C   0  0  0  0  0  0  0  0  0  0  0  0
  -87.2962   27.3837    1.6262 C   0  0  0  0  0  0  0  0  0  0  0  0
  -87.0124   26.3415    2.3187 O   0  0  0  0  0  0  0  0  0  0  0  0
  -86.1749   28.3262    1.4541 C   0  0  0  0  0  0  0  0  0  0  0  0
  -86.1136   29.4170    0.7168 N   0  0  0  0  0  0  0  0  0  0  0  0
  -85.0230   30.1264    0.6944 C   0  0  0  0  0  0  0  0  0  0  0  0
  -84.7952   31.3106   -0.0373 C   0  0  0  0  0  0  0  0  0  0  0  0
  -83.6078   31.9571    0.0252 C   0  0  0  0  0  0  0  0  0  0  0  0
  -82.5472   31.5321    0.7842 C   0  0  0  0  0  0  0  0  0  0  0  0
  -82.7379   30.3739    1.5139 C   0  0  0  0  0  0  0  0  0  0  0  0
  -83.9672   29.7007    1.4519 C   0  0  0  0  0  0  0  0  0  0  0  0
  -84.6262   28.2739    2.1644 S   0  0  0  0  0  0  0  0  0  0  0  0
  -89.1769   26.3522    0.4177 C   0  0  0  0  0  0  0  0  0  0  0  0
  -89.8603   25.2843    1.1259 C   0  0  0  0  0  0  0  0  0  0  0  0
  -90.4091   25.4619    2.4831 C   0  0  0  0  0  0  0  0  0  0  0  0
  -89.6028   24.5723    3.3581 N   0  0  0  0  0  0  0  0  0  0  0  0
  -88.7206   24.9673    3.7316 H   0  0  0  0  0  0  0  0  0  0  0  0
  -90.0351   23.2657    3.6533 C   0  0  0  0  0  0  0  0  0  0  0  0
  -91.3766   22.8924    3.3806 N   0  0  0  0  0  0  0  0  0  0  0  0
  -89.1741   22.4422    4.1719 N   0  0  0  0  0  0  0  0  0  0  0  0
  -91.9061   22.2916    4.0406 H   0  0  0  0  0  0  0  0  0  0  0  0
  -91.8445   23.2183    2.5129 H   0  0  0  0  0  0  0  0  0  0  0  0
  -89.4563   21.4672    4.4040 H   0  0  0  0  0  0  0  0  0  0  0  0
 13 14  1  0  0  0
 14 15  1  0  0  0
 14 12  1  0  0  0
 12  6  1  0  0  0
  6  7  1  0  0  0
  7  8  1  0  0  0
  8  9  1  0  0  0
  8 10  2  0  0  0
  6  2  1  0  0  0
  2  3  2  0  0  0
  2  4  1  0  0  0
  4  1  1  0  0  0
  1 27  1  0  0  0
 27 28  1  0  0  0
 28 29  1  0  0  0
 29 30  1  0  0  0
 30 32  1  0  0  0
 32 33  1  0  0  0
 32 34  2  0  0  0
  1 16  1  0  0  0
 16 17  2  0  0  0
 16 18  1  0  0  0
 18 19  2  0  0  0
 19 20  1  0  0  0
 20 21  2  0  0  0
 21 22  1  0  0  0
 22 23  2  0  0  0
 23 24  1  0  0  0
 24 25  2  0  0  0
 25 26  1  0  0  0
 26 18  1  0  0  0
 25 20  1  0  0  0
  7 11  1  0  0  0
  4  5  1  0  0  0
 30 31  1  0  0  0
 33 35  1  0  0  0
 33 36  1  0  0  0
 34 37  1  0  0  0
M  END
> <minimizedAffinity>
-7.07010

> <CNNscore>
0.3103906512

> <CNNaffinity>
6.6464080811

> <CNN_VS>
2.0629830360

> <CNNaffinity_variance>
0.0403172411

$$$$
[H]N=C(N([H])[H])N([H])C([H])([H])C([H])([H])C([H])([H])[C@@]([H])(C(=O)c1nc2c([H])c([H])c([H])c([H])c2s1)N([H])C(=O)[C@@]([H])(N([H])C(=O)C([H])([H])[H])C([H])([H])C([H])(C([H])([H])[H])C([H])([H])[H]


 37 38  0  0  0  0  0  0  0  0999 V2000
  -88.8033   27.6723   -0.6345 C   0  0  0  0  0  0  0  0  0  0  0  0
  -89.1748   26.1376    1.2986 C   0  0  0  0  0  0  0  0  0  0  0  0
  -87.9191   25.9426    1.3005 O   0  0  0  0  0  0  0  0  0  0  0  0
  -89.7224   26.9977    0.3537 N   0  0  0  0  0  0  0  0  0  0  0  0
  -90.7178   27.2153    0.2726 H   0  0  0  0  0  0  0  0  0  0  0  0
  -90.0059   25.4178    2.3299 C   0  0  0  0  0  0  0  0  0  0  0  0
  -89.8130   23.9890    2.1860 N   0  0  0  0  0  0  0  0  0  0  0  0
  -90.8967   23.1010    2.2324 C   0  0  0  0  0  0  0  0  0  0  0  0
  -90.7361   21.6315    2.0875 C   0  0  0  0  0  0  0  0  0  0  0  0
  -92.0603   23.5500    2.4030 O   0  0  0  0  0  0  0  0  0  0  0  0
  -88.8535   23.6128    2.0453 H   0  0  0  0  0  0  0  0  0  0  0  0
  -89.4871   25.8781    3.6773 C   0  0  0  0  0  0  0  0  0  0  0  0
  -89.8983   26.7875    5.8844 C   0  0  0  0  0  0  0  0  0  0  0  0
  -90.4910   26.6395    4.4766 C   0  0  0  0  0  0  0  0  0  0  0  0
  -90.6459   28.0408    3.9446 C   0  0  0  0  0  0  0  0  0  0  0  0
  -88.5686   29.0336   -0.1593 C   0  0  0  0  0  0  0  0  0  0  0  0
  -89.5519   29.8201    0.0873 O   0  0  0  0  0  0  0  0  0  0  0  0
  -87.2391   29.6221    0.0886 C   0  0  0  0  0  0  0  0  0  0  0  0
  -86.2107   29.1070    0.7321 N   0  0  0  0  0  0  0  0  0  0  0  0
  -85.1082   29.7886    0.8478 C   0  0  0  0  0  0  0  0  0  0  0  0
  -83.9253   29.3852    1.5015 C   0  0  0  0  0  0  0  0  0  0  0  0
  -82.8407   30.1933    1.5524 C   0  0  0  0  0  0  0  0  0  0  0  0
  -82.7940   31.4432    0.9891 C   0  0  0  0  0  0  0  0  0  0  0  0
  -83.9379   31.8688    0.3404 C   0  0  0  0  0  0  0  0  0  0  0  0
  -85.0642   31.0342    0.2854 C   0  0  0  0  0  0  0  0  0  0  0  0
  -86.6483   31.1479   -0.3895 S   0  0  0  0  0  0  0  0  0  0  0  0
  -89.5875   27.6083   -1.8890 C   0  0  0  0  0  0  0  0  0  0  0  0
  -91.0368   27.5318   -1.9420 C   0  0  0  0  0  0  0  0  0  0  0  0
  -91.8750   28.6852   -2.3188 C   0  0  0  0  0  0  0  0  0  0  0  0
  -90.9290   29.7235   -2.8027 N   0  0  0  0  0  0  0  0  0  0  0  0
  -90.0788   29.3840   -3.2881 H   0  0  0  0  0  0  0  0  0  0  0  0
  -91.1953   31.0913   -2.6039 C   0  0  0  0  0  0  0  0  0  0  0  0
  -90.2319   31.9062   -1.9549 N   0  0  0  0  0  0  0  0  0  0  0  0
  -92.3306   31.5586   -3.0295 N   0  0  0  0  0  0  0  0  0  0  0  0
  -90.5226   32.6345   -1.2752 H   0  0  0  0  0  0  0  0  0  0  0  0
  -89.2207   31.7814   -2.1548 H   0  0  0  0  0  0  0  0  0  0  0  0
  -92.5636   32.5652   -2.9008 H   0  0  0  0  0  0  0  0  0  0  0  0
 13 14  1  0  0  0
 14 15  1  0  0  0
 14 12  1  0  0  0
 12  6  1  0  0  0
  6  7  1  0  0  0
  7  8  1  0  0  0
  8  9  1  0  0  0
  8 10  2  0  0  0
  6  2  1  0  0  0
  2  3  2  0  0  0
  2  4  1  0  0  0
  4  1  1  0  0  0
  1 27  1  0  0  0
 27 28  1  0  0  0
 28 29  1  0  0  0
 29 30  1  0  0  0
 30 32  1  0  0  0
 32 33  1  0  0  0
 32 34  2  0  0  0
  1 16  1  0  0  0
 16 17  2  0  0  0
 16 18  1  0  0  0
 18 19  2  0  0  0
 19 20  1  0  0  0
 20 21  2  0  0  0
 21 22  1  0  0  0
 22 23  2  0  0  0
 23 24  1  0  0  0
 24 25  2  0  0  0
 25 26  1  0  0  0
 26 18  1  0  0  0
 25 20  1  0  0  0
  7 11  1  0  0  0
  4  5  1  0  0  0
 30 31  1  0  0  0
 33 35  1  0  0  0
 33 36  1  0  0  0
 34 37  1  0  0  0
M  END
> <minimizedAffinity>
-7.64675

> <CNNscore>
0.2920464873

> <CNNaffinity>
6.5655426979

> <CNN_VS>
1.9174436331

> <CNNaffinity_variance>
0.1230038181

$$$$
[H]N=C(N([H])[H])N([H])C([H])([H])C([H])([H])C([H])([H])[C@@]([H])(C(=O)c1nc2c([H])c([H])c([H])c([H])c2s1)N([H])C(=O)[C@@]([H])(N([H])C(=O)C([H])([H])[H])C([H])([H])C([H])(C([H])([H])[H])C([H])([H])[H]


 37 38  0  0  0  0  0  0  0  0999 V2000
  -89.3314   30.8321   -1.5790 C   0  0  0  0  0  0  0  0  0  0  0  0
  -88.7155   28.4320   -1.2779 C   0  0  0  0  0  0  0  0  0  0  0  0
  -88.5301   28.3901   -2.5344 O   0  0  0  0  0  0  0  0  0  0  0  0
  -89.1251   29.6263   -0.6960 N   0  0  0  0  0  0  0  0  0  0  0  0
  -89.3010   29.7568    0.3024 H   0  0  0  0  0  0  0  0  0  0  0  0
  -88.4791   27.1727   -0.4837 C   0  0  0  0  0  0  0  0  0  0  0  0
  -88.6558   26.0232   -1.3477 N   0  0  0  0  0  0  0  0  0  0  0  0
  -89.6399   25.0602   -1.0841 C   0  0  0  0  0  0  0  0  0  0  0  0
  -89.8497   23.8706   -1.9484 C   0  0  0  0  0  0  0  0  0  0  0  0
  -90.3850   25.1934   -0.0784 O   0  0  0  0  0  0  0  0  0  0  0  0
  -88.0424   25.9081   -2.1799 H   0  0  0  0  0  0  0  0  0  0  0  0
  -87.0432   27.2461   -0.0051 C   0  0  0  0  0  0  0  0  0  0  0  0
  -87.9153   26.5365    2.1404 C   0  0  0  0  0  0  0  0  0  0  0  0
  -86.9130   27.4805    1.4627 C   0  0  0  0  0  0  0  0  0  0  0  0
  -85.5520   27.0581    1.9526 C   0  0  0  0  0  0  0  0  0  0  0  0
  -88.6006   31.9464   -0.9805 C   0  0  0  0  0  0  0  0  0  0  0  0
  -89.1943   33.0528   -0.7162 O   0  0  0  0  0  0  0  0  0  0  0  0
  -87.1705   31.9200   -0.6206 C   0  0  0  0  0  0  0  0  0  0  0  0
  -86.4985   30.9994    0.0414 N   0  0  0  0  0  0  0  0  0  0  0  0
  -85.2260   31.1571    0.2636 C   0  0  0  0  0  0  0  0  0  0  0  0
  -84.3685   30.2736    0.9517 C   0  0  0  0  0  0  0  0  0  0  0  0
  -83.0552   30.5561    1.1171 C   0  0  0  0  0  0  0  0  0  0  0  0
  -82.4549   31.6953    0.6441 C   0  0  0  0  0  0  0  0  0  0  0  0
  -83.2682   32.5825   -0.0354 C   0  0  0  0  0  0  0  0  0  0  0  0
  -84.6300   32.2934   -0.2090 C   0  0  0  0  0  0  0  0  0  0  0  0
  -85.9693   33.0808   -0.9600 S   0  0  0  0  0  0  0  0  0  0  0  0
  -90.8022   31.0000   -1.5448 C   0  0  0  0  0  0  0  0  0  0  0  0
  -91.6840   30.6966   -2.6581 C   0  0  0  0  0  0  0  0  0  0  0  0
  -91.1825   30.1744   -3.9429 C   0  0  0  0  0  0  0  0  0  0  0  0
  -92.2700   29.3128   -4.4740 N   0  0  0  0  0  0  0  0  0  0  0  0
  -92.5830   28.5352   -3.8648 H   0  0  0  0  0  0  0  0  0  0  0  0
  -92.8332   29.5599   -5.7402 C   0  0  0  0  0  0  0  0  0  0  0  0
  -92.9839   30.8964   -6.1920 N   0  0  0  0  0  0  0  0  0  0  0  0
  -93.1979   28.5373   -6.4542 N   0  0  0  0  0  0  0  0  0  0  0  0
  -93.8328   31.1896   -6.7119 H   0  0  0  0  0  0  0  0  0  0  0  0
  -92.2418   31.5986   -6.0062 H   0  0  0  0  0  0  0  0  0  0  0  0
  -93.6184   28.6798   -7.3960 H   0  0  0  0  0  0  0  0  0  0  0  0
 13 14  1  0  0  0
 14 15  1  0  0  0
 14 12  1  0  0  0
 12  6  1  0  0  0
  6  7  1  0  0  0
  7  8  1  0  0  0
  8  9  1  0  0  0
  8 10  2  0  0  0
  6  2  1  0  0  0
  2  3  2  0  0  0
  2  4  1  0  0  0
  4  1  1  0  0  0
  1 27  1  0  0  0
 27 28  1  0  0  0
 28 29  1  0  0  0
 29 30  1  0  0  0
 30 32  1  0  0  0
 32 33  1  0  0  0
 32 34  2  0  0  0
  1 16  1  0  0  0
 16 17  2  0  0  0
 16 18  1  0  0  0
 18 19  2  0  0  0
 19 20  1  0  0  0
 20 21  2  0  0  0
 21 22  1  0  0  0
 22 23  2  0  0  0
 23 24  1  0  0  0
 24 25  2  0  0  0
 25 26  1  0  0  0
 26 18  1  0  0  0
 25 20  1  0  0  0
  7 11  1  0  0  0
  4  5  1  0  0  0
 30 31  1  0  0  0
 33 35  1  0  0  0
 33 36  1  0  0  0
 34 37  1  0  0  0
M  END
> <minimizedAffinity>
-7.22343

> <CNNscore>
0.2831827104

> <CNNaffinity>
6.0637640953

> <CNN_VS>
1.7171531916

> <CNNaffinity_variance>
0.3591216207

$$$$
[H]N=C(N([H])[H])N([H])C([H])([H])C([H])([H])C([H])([H])[C@@]([H])(C(=O)c1nc2c([H])c([H])c([H])c([H])c2s1)N([H])C(=O)[C@@]([H])(N([H])C(=O)C([H])([H])[H])C([H])([H])C([H])(C([H])([H])[H])C([H])([H])[H]


 37 38  0  0  0  0  0  0  0  0999 V2000
  -88.3198   31.0757   -1.4492 C   0  0  0  0  0  0  0  0  0  0  0  0
  -89.1447   28.7440   -1.1131 C   0  0  0  0  0  0  0  0  0  0  0  0
  -88.6325   28.4700   -2.2433 O   0  0  0  0  0  0  0  0  0  0  0  0
  -89.0411   30.0404   -0.6220 N   0  0  0  0  0  0  0  0  0  0  0  0
  -89.4213   30.3558    0.2729 H   0  0  0  0  0  0  0  0  0  0  0  0
  -89.8420   27.6375   -0.3633 C   0  0  0  0  0  0  0  0  0  0  0  0
  -89.4035   26.3583   -0.8835 N   0  0  0  0  0  0  0  0  0  0  0  0
  -90.3223   25.3451   -1.1909 C   0  0  0  0  0  0  0  0  0  0  0  0
  -89.9087   24.0230   -1.7265 C   0  0  0  0  0  0  0  0  0  0  0  0
  -91.5519   25.5471   -1.0120 O   0  0  0  0  0  0  0  0  0  0  0  0
  -88.3886   26.1861   -1.0328 H   0  0  0  0  0  0  0  0  0  0  0  0
  -89.4159   27.7827    1.0836 C   0  0  0  0  0  0  0  0  0  0  0  0
  -89.8584   26.9408    3.3113 C   0  0  0  0  0  0  0  0  0  0  0  0
  -90.5173   27.5354    2.0594 C   0  0  0  0  0  0  0  0  0  0  0  0
  -91.1428   28.8338    2.4993 C   0  0  0  0  0  0  0  0  0  0  0  0
  -87.3167   31.7032   -0.5924 C   0  0  0  0  0  0  0  0  0  0  0  0
  -87.3449   32.9661   -0.3673 O   0  0  0  0  0  0  0  0  0  0  0  0
  -86.2201   30.9867    0.0852 C   0  0  0  0  0  0  0  0  0  0  0  0
  -86.2552   29.8418    0.7373 N   0  0  0  0  0  0  0  0  0  0  0  0
  -85.1696   29.3654    1.2739 C   0  0  0  0  0  0  0  0  0  0  0  0
  -85.0384   28.1635    2.0004 C   0  0  0  0  0  0  0  0  0  0  0  0
  -83.8457   27.7786    2.5113 C   0  0  0  0  0  0  0  0  0  0  0  0
  -82.6881   28.5015    2.3733 C   0  0  0  0  0  0  0  0  0  0  0  0
  -82.7825   29.6853    1.6661 C   0  0  0  0  0  0  0  0  0  0  0  0
  -84.0171   30.0879    1.1350 C   0  0  0  0  0  0  0  0  0  0  0  0
  -84.5817   31.4376    0.2201 S   0  0  0  0  0  0  0  0  0  0  0  0
  -89.4189   31.9869   -1.8421 C   0  0  0  0  0  0  0  0  0  0  0  0
  -89.5583   32.5750   -3.1627 C   0  0  0  0  0  0  0  0  0  0  0  0
  -89.4448   34.0266   -3.3965 C   0  0  0  0  0  0  0  0  0  0  0  0
  -88.1670   34.4340   -2.7574 N   0  0  0  0  0  0  0  0  0  0  0  0
  -88.2117   34.6836   -1.7527 H   0  0  0  0  0  0  0  0  0  0  0  0
  -86.9696   34.4694   -3.4964 C   0  0  0  0  0  0  0  0  0  0  0  0
  -86.8601   35.3377   -4.6132 N   0  0  0  0  0  0  0  0  0  0  0  0
  -85.9985   33.6927   -3.1194 N   0  0  0  0  0  0  0  0  0  0  0  0
  -86.3759   35.0324   -5.4788 H   0  0  0  0  0  0  0  0  0  0  0  0
  -87.2655   36.2929   -4.5753 H   0  0  0  0  0  0  0  0  0  0  0  0
  -85.0972   33.6906   -3.6408 H   0  0  0  0  0  0  0  0  0  0  0  0
 13 14  1  0  0  0
 14 15  1  0  0  0
 14 12  1  0  0  0
 12  6  1  0  0  0
  6  7  1  0  0  0
  7  8  1  0  0  0
  8  9  1  0  0  0
  8 10  2  0  0  0
  6  2  1  0  0  0
  2  3  2  0  0  0
  2  4  1  0  0  0
  4  1  1  0  0  0
  1 27  1  0  0  0
 27 28  1  0  0  0
 28 29  1  0  0  0
 29 30  1  0  0  0
 30 32  1  0  0  0
 32 33  1  0  0  0
 32 34  2  0  0  0
  1 16  1  0  0  0
 16 17  2  0  0  0
 16 18  1  0  0  0
 18 19  2  0  0  0
 19 20  1  0  0  0
 20 21  2  0  0  0
 21 22  1  0  0  0
 22 23  2  0  0  0
 23 24  1  0  0  0
 24 25  2  0  0  0
 25 26  1  0  0  0
 26 18  1  0  0  0
 25 20  1  0  0  0
  7 11  1  0  0  0
  4  5  1  0  0  0
 30 31  1  0  0  0
 33 35  1  0  0  0
 33 36  1  0  0  0
 34 37  1  0  0  0
M  END
> <minimizedAffinity>
-7.52572

> <CNNscore>
0.2676679790

> <CNNaffinity>
6.6695113182

> <CNN_VS>
1.7852146626

> <CNNaffinity_variance>
0.2312344760

$$$$
[H]N=C(N([H])[H])N([H])C([H])([H])C([H])([H])C([H])([H])[C@@]([H])(C(=O)c1nc2c([H])c([H])c([H])c([H])c2s1)N([H])C(=O)[C@@]([H])(N([H])C(=O)C([H])([H])[H])C([H])([H])C([H])(C([H])([H])[H])C([H])([H])[H]


 37 38  0  0  0  0  0  0  0  0999 V2000
  -88.9988   27.4296    0.5717 C   0  0  0  0  0  0  0  0  0  0  0  0
  -89.7672   29.4713   -0.6412 C   0  0  0  0  0  0  0  0  0  0  0  0
  -90.8452   29.3818    0.0257 O   0  0  0  0  0  0  0  0  0  0  0  0
  -88.7678   28.5266   -0.4380 N   0  0  0  0  0  0  0  0  0  0  0  0
  -87.8702   28.5148   -0.9268 H   0  0  0  0  0  0  0  0  0  0  0  0
  -89.6334   30.6066   -1.6239 C   0  0  0  0  0  0  0  0  0  0  0  0
  -90.8141   30.6541   -2.4622 N   0  0  0  0  0  0  0  0  0  0  0  0
  -90.7141   30.6368   -3.8604 C   0  0  0  0  0  0  0  0  0  0  0  0
  -91.9026   30.6830   -4.7500 C   0  0  0  0  0  0  0  0  0  0  0  0
  -89.5786   30.5797   -4.4007 O   0  0  0  0  0  0  0  0  0  0  0  0
  -91.7548   30.7018   -2.0207 H   0  0  0  0  0  0  0  0  0  0  0  0
  -89.5376   31.8688   -0.7908 C   0  0  0  0  0  0  0  0  0  0  0  0
  -87.3889   31.9262   -1.9075 C   0  0  0  0  0  0  0  0  0  0  0  0
  -88.4574   32.7978   -1.2342 C   0  0  0  0  0  0  0  0  0  0  0  0
  -88.9618   33.7321   -2.3035 C   0  0  0  0  0  0  0  0  0  0  0  0
  -88.0828   27.6573    1.6867 C   0  0  0  0  0  0  0  0  0  0  0  0
  -88.3591   27.2209    2.8612 O   0  0  0  0  0  0  0  0  0  0  0  0
  -86.7952   28.3698    1.5874 C   0  0  0  0  0  0  0  0  0  0  0  0
  -86.5483   29.5750    1.1146 N   0  0  0  0  0  0  0  0  0  0  0  0
  -85.3312   30.0355    1.1111 C   0  0  0  0  0  0  0  0  0  0  0  0
  -84.9011   31.2945    0.6429 C   0  0  0  0  0  0  0  0  0  0  0  0
  -83.5975   31.6549    0.6945 C   0  0  0  0  0  0  0  0  0  0  0  0
  -82.6034   30.8516    1.1926 C   0  0  0  0  0  0  0  0  0  0  0  0
  -82.9919   29.6102    1.6599 C   0  0  0  0  0  0  0  0  0  0  0  0
  -84.3421   29.2327    1.6082 C   0  0  0  0  0  0  0  0  0  0  0  0
  -85.2472   27.8345    2.0592 S   0  0  0  0  0  0  0  0  0  0  0  0
  -88.6905   26.2108   -0.2107 C   0  0  0  0  0  0  0  0  0  0  0  0
  -89.4029   24.9526   -0.0753 C   0  0  0  0  0  0  0  0  0  0  0  0
  -90.5834   24.8034    0.7959 C   0  0  0  0  0  0  0  0  0  0  0  0
  -90.2259   23.7426    1.7726 N   0  0  0  0  0  0  0  0  0  0  0  0
  -89.8746   22.8509    1.3786 H   0  0  0  0  0  0  0  0  0  0  0  0
  -90.3625   23.9601    3.1565 C   0  0  0  0  0  0  0  0  0  0  0  0
  -89.2769   24.5024    3.8917 N   0  0  0  0  0  0  0  0  0  0  0  0
  -91.4952   23.6500    3.7125 N   0  0  0  0  0  0  0  0  0  0  0  0
  -89.0510   24.1528    4.8424 H   0  0  0  0  0  0  0  0  0  0  0  0
  -88.6943   25.2589    3.4838 H   0  0  0  0  0  0  0  0  0  0  0  0
  -91.6345   23.7964    4.7339 H   0  0  0  0  0  0  0  0  0  0  0  0
 13 14  1  0  0  0
 14 15  1  0  0  0
 14 12  1  0  0  0
 12  6  1  0  0  0
  6  7  1  0  0  0
  7  8  1  0  0  0
  8  9  1  0  0  0
  8 10  2  0  0  0
  6  2  1  0  0  0
  2  3  2  0  0  0
  2  4  1  0  0  0
  4  1  1  0  0  0
  1 27  1  0  0  0
 27 28  1  0  0  0
 28 29  1  0  0  0
 29 30  1  0  0  0
 30 32  1  0  0  0
 32 33  1  0  0  0
 32 34  2  0  0  0
  1 16  1  0  0  0
 16 17  2  0  0  0
 16 18  1  0  0  0
 18 19  2  0  0  0
 19 20  1  0  0  0
 20 21  2  0  0  0
 21 22  1  0  0  0
 22 23  2  0  0  0
 23 24  1  0  0  0
 24 25  2  0  0  0
 25 26  1  0  0  0
 26 18  1  0  0  0
 25 20  1  0  0  0
  7 11  1  0  0  0
  4  5  1  0  0  0
 30 31  1  0  0  0
 33 35  1  0  0  0
 33 36  1  0  0  0
 34 37  1  0  0  0
M  END
> <minimizedAffinity>
-7.74459

> <CNNscore>
0.2590067685

> <CNNaffinity>
6.5617990494

> <CNN_VS>
1.6995503902

> <CNNaffinity_variance>
0.1799663156

$$$$
[H]N=C(N([H])[H])N([H])C([H])([H])C([H])([H])C([H])([H])[C@@]([H])(C(=O)c1nc2c([H])c([H])c([H])c([H])c2s1)N([H])C(=O)[C@@]([H])(N([H])C(=O)C([H])([H])[H])C([H])([H])C([H])(C([H])([H])[H])C([H])([H])[H]


 37 38  0  0  0  0  0  0  0  0999 V2000
  -89.1609   30.5468   -1.7132 C   0  0  0  0  0  0  0  0  0  0  0  0
  -88.5660   28.1553   -1.3173 C   0  0  0  0  0  0  0  0  0  0  0  0
  -88.0164   28.1707   -2.4629 O   0  0  0  0  0  0  0  0  0  0  0  0
  -89.1766   29.3121   -0.8464 N   0  0  0  0  0  0  0  0  0  0  0  0
  -89.6446   29.3960    0.0584 H   0  0  0  0  0  0  0  0  0  0  0  0
  -88.5247   26.8716   -0.5280 C   0  0  0  0  0  0  0  0  0  0  0  0
  -88.7872   25.7568   -1.4155 N   0  0  0  0  0  0  0  0  0  0  0  0
  -89.6452   24.7142   -1.0387 C   0  0  0  0  0  0  0  0  0  0  0  0
  -89.9378   23.5572   -1.9229 C   0  0  0  0  0  0  0  0  0  0  0  0
  -90.1988   24.7437    0.0914 O   0  0  0  0  0  0  0  0  0  0  0  0
  -88.3319   25.7275   -2.3503 H   0  0  0  0  0  0  0  0  0  0  0  0
  -87.1192   26.7711    0.0293 C   0  0  0  0  0  0  0  0  0  0  0  0
  -85.6913   27.0235    1.9696 C   0  0  0  0  0  0  0  0  0  0  0  0
  -87.0748   26.5499    1.5043 C   0  0  0  0  0  0  0  0  0  0  0  0
  -88.0718   27.4342    2.2075 C   0  0  0  0  0  0  0  0  0  0  0  0
  -88.5359   31.6185   -0.9418 C   0  0  0  0  0  0  0  0  0  0  0  0
  -89.2256   32.6210   -0.5349 O   0  0  0  0  0  0  0  0  0  0  0  0
  -87.1134   31.6586   -0.5543 C   0  0  0  0  0  0  0  0  0  0  0  0
  -86.4090   30.7647    0.1105 N   0  0  0  0  0  0  0  0  0  0  0  0
  -85.1504   30.9825    0.3592 C   0  0  0  0  0  0  0  0  0  0  0  0
  -84.2632   30.1345    1.0543 C   0  0  0  0  0  0  0  0  0  0  0  0
  -82.9690   30.4798    1.2483 C   0  0  0  0  0  0  0  0  0  0  0  0
  -82.4173   31.6528    0.7996 C   0  0  0  0  0  0  0  0  0  0  0  0
  -83.2607   32.5067    0.1141 C   0  0  0  0  0  0  0  0  0  0  0  0
  -84.6029   32.1525   -0.0891 C   0  0  0  0  0  0  0  0  0  0  0  0
  -85.9652   32.8815   -0.8576 S   0  0  0  0  0  0  0  0  0  0  0  0
  -90.6017   30.7664   -1.9752 C   0  0  0  0  0  0  0  0  0  0  0  0
  -91.1414   31.2050   -3.2501 C   0  0  0  0  0  0  0  0  0  0  0  0
  -90.6379   32.4007   -3.9513 C   0  0  0  0  0  0  0  0  0  0  0  0
  -89.7234   31.8889   -5.0044 N   0  0  0  0  0  0  0  0  0  0  0  0
  -90.1650   31.5766   -5.8883 H   0  0  0  0  0  0  0  0  0  0  0  0
  -88.3327   31.8423   -4.7922 C   0  0  0  0  0  0  0  0  0  0  0  0
  -87.6411   33.0219   -4.4136 N   0  0  0  0  0  0  0  0  0  0  0  0
  -87.7300   30.7026   -4.9545 N   0  0  0  0  0  0  0  0  0  0  0  0
  -86.7049   33.2385   -4.8054 H   0  0  0  0  0  0  0  0  0  0  0  0
  -88.0672   33.6841   -3.7366 H   0  0  0  0  0  0  0  0  0  0  0  0
  -86.7021   30.6283   -4.8066 H   0  0  0  0  0  0  0  0  0  0  0  0
 13 14  1  0  0  0
 14 15  1  0  0  0
 14 12  1  0  0  0
 12  6  1  0  0  0
  6  7  1  0  0  0
  7  8  1  0  0  0
  8  9  1  0  0  0
  8 10  2  0  0  0
  6  2  1  0  0  0
  2  3  2  0  0  0
  2  4  1  0  0  0
  4  1  1  0  0  0
  1 27  1  0  0  0
 27 28  1  0  0  0
 28 29  1  0  0  0
 29 30  1  0  0  0
 30 32  1  0  0  0
 32 33  1  0  0  0
 32 34  2  0  0  0
  1 16  1  0  0  0
 16 17  2  0  0  0
 16 18  1  0  0  0
 18 19  2  0  0  0
 19 20  1  0  0  0
 20 21  2  0  0  0
 21 22  1  0  0  0
 22 23  2  0  0  0
 23 24  1  0  0  0
 24 25  2  0  0  0
 25 26  1  0  0  0
 26 18  1  0  0  0
 25 20  1  0  0  0
  7 11  1  0  0  0
  4  5  1  0  0  0
 30 31  1  0  0  0
 33 35  1  0  0  0
 33 36  1  0  0  0
 34 37  1  0  0  0
M  END
> <minimizedAffinity>
-7.88844

> <CNNscore>
0.2485037595

> <CNNaffinity>
6.0410833359

> <CNN_VS>
1.5012319088

> <CNNaffinity_variance>
0.6436990499

$$$$
[H]N=C(N([H])[H])N([H])C([H])([H])C([H])([H])C([H])([H])[C@@]([H])(C(=O)c1nc2c([H])c([H])c([H])c([H])c2s1)N([H])C(=O)[C@@]([H])(N([H])C(=O)C([H])([H])[H])C([H])([H])C([H])(C([H])([H])[H])C([H])([H])[H]


 37 38  0  0  0  0  0  0  0  0999 V2000
  -88.9846   28.9546   -0.7595 C   0  0  0  0  0  0  0  0  0  0  0  0
  -90.1501   27.1403   -2.0165 C   0  0  0  0  0  0  0  0  0  0  0  0
  -89.6372   27.6311   -3.0705 O   0  0  0  0  0  0  0  0  0  0  0  0
  -89.8807   27.7413   -0.7922 N   0  0  0  0  0  0  0  0  0  0  0  0
  -90.2476   27.4210    0.1065 H   0  0  0  0  0  0  0  0  0  0  0  0
  -91.0296   25.9239   -2.1558 C   0  0  0  0  0  0  0  0  0  0  0  0
  -90.8832   25.0917   -0.9788 N   0  0  0  0  0  0  0  0  0  0  0  0
  -90.2124   23.8621   -1.0369 C   0  0  0  0  0  0  0  0  0  0  0  0
  -90.0427   22.9844    0.1493 C   0  0  0  0  0  0  0  0  0  0  0  0
  -89.7277   23.4705   -2.1306 O   0  0  0  0  0  0  0  0  0  0  0  0
  -91.2822   25.4104   -0.0726 H   0  0  0  0  0  0  0  0  0  0  0  0
  -92.4492   26.4455   -2.2489 C   0  0  0  0  0  0  0  0  0  0  0  0
  -92.7072   26.6087   -4.6519 C   0  0  0  0  0  0  0  0  0  0  0  0
  -93.2182   25.8856   -3.3985 C   0  0  0  0  0  0  0  0  0  0  0  0
  -92.8917   24.4285   -3.6007 C   0  0  0  0  0  0  0  0  0  0  0  0
  -88.0677   28.7947    0.3664 C   0  0  0  0  0  0  0  0  0  0  0  0
  -88.3773   28.0473    1.3624 O   0  0  0  0  0  0  0  0  0  0  0  0
  -86.7433   29.4351    0.4722 C   0  0  0  0  0  0  0  0  0  0  0  0
  -86.3540   30.6139    0.0294 N   0  0  0  0  0  0  0  0  0  0  0  0
  -85.1290   31.0086    0.2215 C   0  0  0  0  0  0  0  0  0  0  0  0
  -84.5571   32.2315   -0.1870 C   0  0  0  0  0  0  0  0  0  0  0  0
  -83.2617   32.5230    0.0752 C   0  0  0  0  0  0  0  0  0  0  0  0
  -82.4105   31.6799    0.7432 C   0  0  0  0  0  0  0  0  0  0  0  0
  -82.9402   30.4724    1.1576 C   0  0  0  0  0  0  0  0  0  0  0  0
  -84.2825   30.1664    0.8877 C   0  0  0  0  0  0  0  0  0  0  0  0
  -85.3271   28.8294    1.2024 S   0  0  0  0  0  0  0  0  0  0  0  0
  -89.9554   30.0588   -0.5825 C   0  0  0  0  0  0  0  0  0  0  0  0
  -89.6156   31.4673   -0.6811 C   0  0  0  0  0  0  0  0  0  0  0  0
  -89.3644   32.1302   -1.9743 C   0  0  0  0  0  0  0  0  0  0  0  0
  -87.9274   32.5068   -1.9560 N   0  0  0  0  0  0  0  0  0  0  0  0
  -87.2988   31.9042   -1.3945 H   0  0  0  0  0  0  0  0  0  0  0  0
  -87.4656   33.6261   -2.6738 C   0  0  0  0  0  0  0  0  0  0  0  0
  -86.1243   33.6586   -3.1355 N   0  0  0  0  0  0  0  0  0  0  0  0
  -88.3000   34.5991   -2.8871 N   0  0  0  0  0  0  0  0  0  0  0  0
  -85.5694   34.5346   -3.0963 H   0  0  0  0  0  0  0  0  0  0  0  0
  -85.6820   32.8012   -3.5196 H   0  0  0  0  0  0  0  0  0  0  0  0
  -87.9955   35.4438   -3.4141 H   0  0  0  0  0  0  0  0  0  0  0  0
 13 14  1  0  0  0
 14 15  1  0  0  0
 14 12  1  0  0  0
 12  6  1  0  0  0
  6  7  1  0  0  0
  7  8  1  0  0  0
  8  9  1  0  0  0
  8 10  2  0  0  0
  6  2  1  0  0  0
  2  3  2  0  0  0
  2  4  1  0  0  0
  4  1  1  0  0  0
  1 27  1  0  0  0
 27 28  1  0  0  0
 28 29  1  0  0  0
 29 30  1  0  0  0
 30 32  1  0  0  0
 32 33  1  0  0  0
 32 34  2  0  0  0
  1 16  1  0  0  0
 16 17  2  0  0  0
 16 18  1  0  0  0
 18 19  2  0  0  0
 19 20  1  0  0  0
 20 21  2  0  0  0
 21 22  1  0  0  0
 22 23  2  0  0  0
 23 24  1  0  0  0
 24 25  2  0  0  0
 25 26  1  0  0  0
 26 18  1  0  0  0
 25 20  1  0  0  0
  7 11  1  0  0  0
  4  5  1  0  0  0
 30 31  1  0  0  0
 33 35  1  0  0  0
 33 36  1  0  0  0
 34 37  1  0  0  0
M  END
> <minimizedAffinity>
-6.96272

> <CNNscore>
0.2402020693

> <CNNaffinity>
6.2440729141

> <CNN_VS>
1.4998391867

> <CNNaffinity_variance>
0.2175299376

$$$$
[H]c1nc([H])c2c(C(=O)N([H])[H])nn(-c3c([H])c([H])c([H])c(C(=O)N4C([H])([H])C([H])([H])N(C([H])([H])[H])C([H])([H])C4([H])[H])c3[H])c2c1[H]


 29 32  0  0  0  0  0  0  0  0999 V2000
  -89.6490   30.0419   -1.5189 C   0  0  0  0  0  0  0  0  0  0  0  0
  -90.1460   31.3104   -1.6218 C   0  0  0  0  0  0  0  0  0  0  0  0
  -89.4356   32.3883   -1.1582 C   0  0  0  0  0  0  0  0  0  0  0  0
  -88.2057   32.1984   -0.5787 C   0  0  0  0  0  0  0  0  0  0  0  0
  -87.6479   30.9473   -0.4424 C   0  0  0  0  0  0  0  0  0  0  0  0
  -88.3875   29.8957   -0.9184 C   0  0  0  0  0  0  0  0  0  0  0  0
  -89.6444   24.1742   -0.3164 C   0  0  0  0  0  0  0  0  0  0  0  0
  -90.6484   25.1828   -0.5531 N   0  0  0  0  0  0  0  0  0  0  0  0
  -90.6397   25.5107   -1.9401 C   0  0  0  0  0  0  0  0  0  0  0  0
  -91.4644   26.7184   -2.3206 C   0  0  0  0  0  0  0  0  0  0  0  0
  -90.9326   27.7998   -1.4018 N   0  0  0  0  0  0  0  0  0  0  0  0
  -91.2110   27.4947   -0.0468 C   0  0  0  0  0  0  0  0  0  0  0  0
  -90.3530   26.2946    0.3385 C   0  0  0  0  0  0  0  0  0  0  0  0
  -90.3258   28.8601   -2.0438 C   0  0  0  0  0  0  0  0  0  0  0  0
  -90.3370   28.8436   -3.3478 O   0  0  0  0  0  0  0  0  0  0  0  0
  -86.3630   30.7621    0.1649 N   0  0  0  0  0  0  0  0  0  0  0  0
  -85.9603   29.8203    0.9747 N   0  0  0  0  0  0  0  0  0  0  0  0
  -84.6663   29.9861    1.3393 C   0  0  0  0  0  0  0  0  0  0  0  0
  -84.2423   31.1294    0.6954 C   0  0  0  0  0  0  0  0  0  0  0  0
  -83.0676   31.8414    0.6326 C   0  0  0  0  0  0  0  0  0  0  0  0
  -82.9486   32.9595   -0.1069 N   0  0  0  0  0  0  0  0  0  0  0  0
  -84.0048   33.4183   -0.8210 C   0  0  0  0  0  0  0  0  0  0  0  0
  -85.2037   32.7474   -0.7961 C   0  0  0  0  0  0  0  0  0  0  0  0
  -85.3343   31.6045   -0.0434 C   0  0  0  0  0  0  0  0  0  0  0  0
  -83.8842   29.1426    2.2212 C   0  0  0  0  0  0  0  0  0  0  0  0
  -82.5025   28.8893    2.1091 N   0  0  0  0  0  0  0  0  0  0  0  0
  -84.4830   28.5689    3.1930 O   0  0  0  0  0  0  0  0  0  0  0  0
  -81.8458   29.5131    2.6270 H   0  0  0  0  0  0  0  0  0  0  0  0
  -82.0760   28.1216    1.5454 H   0  0  0  0  0  0  0  0  0  0  0  0
  7  8  1  0  0  0
  8  9  1  0  0  0
  9 10  1  0  0  0
 10 11  1  0  0  0
 11 12  1  0  0  0
 12 13  1  0  0  0
 11 14  1  0  0  0
 14 15  2  0  0  0
 14  1  1  0  0  0
  1  2  2  0  0  0
  2  3  1  0  0  0
  3  4  2  0  0  0
  4  5  1  0  0  0
  5  6  2  0  0  0
  5 16  1  0  0  0
 16 17  1  0  0  0
 17 18  2  0  0  0
 18 25  1  0  0  0
 25 26  1  0  0  0
 25 27  2  0  0  0
 18 19  1  0  0  0
 19 20  2  0  0  0
 20 21  1  0  0  0
 21 22  2  0  0  0
 22 23  1  0  0  0
 23 24  2  0  0  0
 13  8  1  0  0  0
  6  1  1  0  0  0
 24 16  1  0  0  0
 24 19  1  0  0  0
 26 28  1  0  0  0
 26 29  1  0  0  0
M  END
> <minimizedAffinity>
-8.86739

> <CNNscore>
0.8598793745

> <CNNaffinity>
6.9928574562

> <CNN_VS>
6.0130138397

> <CNNaffinity_variance>
0.0803361461

$$$$
[H]c1nc([H])c2c(C(=O)N([H])[H])nn(-c3c([H])c([H])c([H])c(C(=O)N4C([H])([H])C([H])([H])N(C([H])([H])[H])C([H])([H])C4([H])[H])c3[H])c2c1[H]


 29 32  0  0  0  0  0  0  0  0999 V2000
  -86.2080   33.0103   -1.2623 C   0  0  0  0  0  0  0  0  0  0  0  0
  -84.9817   33.5816   -1.0710 C   0  0  0  0  0  0  0  0  0  0  0  0
  -84.0015   32.9327   -0.3641 C   0  0  0  0  0  0  0  0  0  0  0  0
  -84.2486   31.6900    0.1643 C   0  0  0  0  0  0  0  0  0  0  0  0
  -85.4621   31.0588    0.0098 C   0  0  0  0  0  0  0  0  0  0  0  0
  -86.4156   31.7384   -0.7031 C   0  0  0  0  0  0  0  0  0  0  0  0
  -90.9099   31.0487   -4.4118 C   0  0  0  0  0  0  0  0  0  0  0  0
  -90.6757   32.0856   -3.4365 N   0  0  0  0  0  0  0  0  0  0  0  0
  -89.9307   33.1294   -4.0584 C   0  0  0  0  0  0  0  0  0  0  0  0
  -89.3950   34.1849   -3.1190 C   0  0  0  0  0  0  0  0  0  0  0  0
  -88.6302   33.3737   -2.0926 N   0  0  0  0  0  0  0  0  0  0  0  0
  -89.5042   32.5394   -1.3533 C   0  0  0  0  0  0  0  0  0  0  0  0
  -90.0167   31.4594   -2.2999 C   0  0  0  0  0  0  0  0  0  0  0  0
  -87.2728   33.6199   -2.0527 C   0  0  0  0  0  0  0  0  0  0  0  0
  -86.8200   34.5535   -2.8429 O   0  0  0  0  0  0  0  0  0  0  0  0
  -85.7078   29.7613    0.5668 N   0  0  0  0  0  0  0  0  0  0  0  0
  -86.7795   29.0192    0.4902 N   0  0  0  0  0  0  0  0  0  0  0  0
  -86.6304   27.8462    1.1511 C   0  0  0  0  0  0  0  0  0  0  0  0
  -85.3561   27.8752    1.6771 C   0  0  0  0  0  0  0  0  0  0  0  0
  -84.5887   27.0237    2.4366 C   0  0  0  0  0  0  0  0  0  0  0  0
  -83.3338   27.3345    2.8107 N   0  0  0  0  0  0  0  0  0  0  0  0
  -82.7869   28.5175    2.4400 C   0  0  0  0  0  0  0  0  0  0  0  0
  -83.5072   29.4078    1.6807 C   0  0  0  0  0  0  0  0  0  0  0  0
  -84.7897   29.0986    1.2941 C   0  0  0  0  0  0  0  0  0  0  0  0
  -87.6023   26.7790    1.2825 C   0  0  0  0  0  0  0  0  0  0  0  0
  -87.6480   25.6047    0.5049 N   0  0  0  0  0  0  0  0  0  0  0  0
  -88.5063   26.8948    2.1778 O   0  0  0  0  0  0  0  0  0  0  0  0
  -87.1360   24.7651    0.8537 H   0  0  0  0  0  0  0  0  0  0  0  0
  -88.1566   25.5028   -0.4006 H   0  0  0  0  0  0  0  0  0  0  0  0
  7  8  1  0  0  0
  8  9  1  0  0  0
  9 10  1  0  0  0
 10 11  1  0  0  0
 11 12  1  0  0  0
 12 13  1  0  0  0
 11 14  1  0  0  0
 14 15  2  0  0  0
 14  1  1  0  0  0
  1  2  2  0  0  0
  2  3  1  0  0  0
  3  4  2  0  0  0
  4  5  1  0  0  0
  5  6  2  0  0  0
  5 16  1  0  0  0
 16 17  1  0  0  0
 17 18  2  0  0  0
 18 25  1  0  0  0
 25 26  1  0  0  0
 25 27  2  0  0  0
 18 19  1  0  0  0
 19 20  2  0  0  0
 20 21  1  0  0  0
 21 22  2  0  0  0
 22 23  1  0  0  0
 23 24  2  0  0  0
 13  8  1  0  0  0
  6  1  1  0  0  0
 24 16  1  0  0  0
 24 19  1  0  0  0
 26 28  1  0  0  0
 26 29  1  0  0  0
M  END
> <minimizedAffinity>
-9.44156

> <CNNscore>
0.7731250525

> <CNNaffinity>
6.7739191055

> <CNN_VS>
5.2370867729

> <CNNaffinity_variance>
0.1891545355

$$$$
[H]c1nc([H])c2c(C(=O)N([H])[H])nn(-c3c([H])c([H])c([H])c(C(=O)N4C([H])([H])C([H])([H])N(C([H])([H])[H])C([H])([H])C4([H])[H])c3[H])c2c1[H]


 29 32  0  0  0  0  0  0  0  0999 V2000
  -87.1096   32.8805   -1.2464 C   0  0  0  0  0  0  0  0  0  0  0  0
  -85.9715   33.6097   -1.0470 C   0  0  0  0  0  0  0  0  0  0  0  0
  -84.9146   33.0927   -0.3420 C   0  0  0  0  0  0  0  0  0  0  0  0
  -84.9938   31.8240    0.1764 C   0  0  0  0  0  0  0  0  0  0  0  0
  -86.1113   31.0370    0.0136 C   0  0  0  0  0  0  0  0  0  0  0  0
  -87.1459   31.5880   -0.6972 C   0  0  0  0  0  0  0  0  0  0  0  0
  -88.7017   38.0071   -3.9031 C   0  0  0  0  0  0  0  0  0  0  0  0
  -88.6774   36.6127   -4.2721 N   0  0  0  0  0  0  0  0  0  0  0  0
  -89.7286   35.9447   -3.5793 C   0  0  0  0  0  0  0  0  0  0  0  0
  -89.6995   34.4364   -3.6663 C   0  0  0  0  0  0  0  0  0  0  0  0
  -88.3005   34.0930   -3.1958 N   0  0  0  0  0  0  0  0  0  0  0  0
  -87.3268   34.5974   -4.0925 C   0  0  0  0  0  0  0  0  0  0  0  0
  -87.3410   36.1177   -3.9767 C   0  0  0  0  0  0  0  0  0  0  0  0
  -88.2451   33.3479   -2.0355 C   0  0  0  0  0  0  0  0  0  0  0  0
  -89.3835   32.9742   -1.5204 O   0  0  0  0  0  0  0  0  0  0  0  0
  -86.1819   29.7139    0.5602 N   0  0  0  0  0  0  0  0  0  0  0  0
  -87.1617   28.8520    0.5129 N   0  0  0  0  0  0  0  0  0  0  0  0
  -86.8509   27.6979    1.1504 C   0  0  0  0  0  0  0  0  0  0  0  0
  -85.5692   27.8709    1.6286 C   0  0  0  0  0  0  0  0  0  0  0  0
  -84.6786   27.1075    2.3461 C   0  0  0  0  0  0  0  0  0  0  0  0
  -83.4550   27.5595    2.6775 N   0  0  0  0  0  0  0  0  0  0  0  0
  -83.0648   28.8022    2.3040 C   0  0  0  0  0  0  0  0  0  0  0  0
  -83.9133   29.6096    1.5855 C   0  0  0  0  0  0  0  0  0  0  0  0
  -85.1649   29.1561    1.2427 C   0  0  0  0  0  0  0  0  0  0  0  0
  -87.6856   26.5228    1.3024 C   0  0  0  0  0  0  0  0  0  0  0  0
  -87.7803   25.4545    0.3884 N   0  0  0  0  0  0  0  0  0  0  0  0
  -88.4073   26.4287    2.3524 O   0  0  0  0  0  0  0  0  0  0  0  0
  -87.1416   24.6396    0.5183 H   0  0  0  0  0  0  0  0  0  0  0  0
  -88.4428   25.4091   -0.4166 H   0  0  0  0  0  0  0  0  0  0  0  0
  7  8  1  0  0  0
  8  9  1  0  0  0
  9 10  1  0  0  0
 10 11  1  0  0  0
 11 12  1  0  0  0
 12 13  1  0  0  0
 11 14  1  0  0  0
 14 15  2  0  0  0
 14  1  1  0  0  0
  1  2  2  0  0  0
  2  3  1  0  0  0
  3  4  2  0  0  0
  4  5  1  0  0  0
  5  6  2  0  0  0
  5 16  1  0  0  0
 16 17  1  0  0  0
 17 18  2  0  0  0
 18 25  1  0  0  0
 25 26  1  0  0  0
 25 27  2  0  0  0
 18 19  1  0  0  0
 19 20  2  0  0  0
 20 21  1  0  0  0
 21 22  2  0  0  0
 22 23  1  0  0  0
 23 24  2  0  0  0
 13  8  1  0  0  0
  6  1  1  0  0  0
 24 16  1  0  0  0
 24 19  1  0  0  0
 26 28  1  0  0  0
 26 29  1  0  0  0
M  END
> <minimizedAffinity>
-9.48016

> <CNNscore>
0.7310230136

> <CNNaffinity>
6.5335044861

> <CNN_VS>
4.7761421204

> <CNNaffinity_variance>
0.1566888392

$$$$
[H]c1nc([H])c2c(C(=O)N([H])[H])nn(-c3c([H])c([H])c([H])c(C(=O)N4C([H])([H])C([H])([H])N(C([H])([H])[H])C([H])([H])C4([H])[H])c3[H])c2c1[H]


 29 32  0  0  0  0  0  0  0  0999 V2000
  -89.6590   30.1571   -1.6885 C   0  0  0  0  0  0  0  0  0  0  0  0
  -90.2102   29.0891   -1.0387 C   0  0  0  0  0  0  0  0  0  0  0  0
  -89.5144   28.4165   -0.0666 C   0  0  0  0  0  0  0  0  0  0  0  0
  -88.2428   28.8150    0.2636 C   0  0  0  0  0  0  0  0  0  0  0  0
  -87.6284   29.8813   -0.3531 C   0  0  0  0  0  0  0  0  0  0  0  0
  -88.3558   30.5284   -1.3182 C   0  0  0  0  0  0  0  0  0  0  0  0
  -88.4323   34.9755   -5.0283 C   0  0  0  0  0  0  0  0  0  0  0  0
  -89.0172   33.6768   -5.2581 N   0  0  0  0  0  0  0  0  0  0  0  0
  -90.3213   33.6618   -4.6834 C   0  0  0  0  0  0  0  0  0  0  0  0
  -90.9827   32.3044   -4.6247 C   0  0  0  0  0  0  0  0  0  0  0  0
  -89.9548   31.4531   -3.9069 N   0  0  0  0  0  0  0  0  0  0  0  0
  -88.7741   31.3266   -4.6792 C   0  0  0  0  0  0  0  0  0  0  0  0
  -88.0968   32.6925   -4.7084 C   0  0  0  0  0  0  0  0  0  0  0  0
  -90.3656   30.9513   -2.6888 C   0  0  0  0  0  0  0  0  0  0  0  0
  -91.5930   31.2071   -2.3300 O   0  0  0  0  0  0  0  0  0  0  0  0
  -86.3001   30.2874    0.0004 N   0  0  0  0  0  0  0  0  0  0  0  0
  -85.6326   31.3452   -0.3746 N   0  0  0  0  0  0  0  0  0  0  0  0
  -84.3951   31.3832    0.1751 C   0  0  0  0  0  0  0  0  0  0  0  0
  -84.2991   30.2490    0.9535 C   0  0  0  0  0  0  0  0  0  0  0  0
  -83.3356   29.6922    1.7611 C   0  0  0  0  0  0  0  0  0  0  0  0
  -83.5352   28.5345    2.4177 N   0  0  0  0  0  0  0  0  0  0  0  0
  -84.7143   27.8780    2.2955 C   0  0  0  0  0  0  0  0  0  0  0  0
  -85.7137   28.3875    1.5020 C   0  0  0  0  0  0  0  0  0  0  0  0
  -85.5184   29.5694    0.8277 C   0  0  0  0  0  0  0  0  0  0  0  0
  -83.3789   32.3997   -0.0113 C   0  0  0  0  0  0  0  0  0  0  0  0
  -82.0222   32.2861    0.3524 N   0  0  0  0  0  0  0  0  0  0  0  0
  -83.7244   33.5044   -0.5521 O   0  0  0  0  0  0  0  0  0  0  0  0
  -81.3521   31.9226   -0.3601 H   0  0  0  0  0  0  0  0  0  0  0  0
  -81.6267   32.5378    1.2847 H   0  0  0  0  0  0  0  0  0  0  0  0
  7  8  1  0  0  0
  8  9  1  0  0  0
  9 10  1  0  0  0
 10 11  1  0  0  0
 11 12  1  0  0  0
 12 13  1  0  0  0
 11 14  1  0  0  0
 14 15  2  0  0  0
 14  1  1  0  0  0
  1  2  2  0  0  0
  2  3  1  0  0  0
  3  4  2  0  0  0
  4  5  1  0  0  0
  5  6  2  0  0  0
  5 16  1  0  0  0
 16 17  1  0  0  0
 17 18  2  0  0  0
 18 25  1  0  0  0
 25 26  1  0  0  0
 25 27  2  0  0  0
 18 19  1  0  0  0
 19 20  2  0  0  0
 20 21  1  0  0  0
 21 22  2  0  0  0
 22 23  1  0  0  0
 23 24  2  0  0  0
 13  8  1  0  0  0
  6  1  1  0  0  0
 24 16  1  0  0  0
 24 19  1  0  0  0
 26 28  1  0  0  0
 26 29  1  0  0  0
M  END
> <minimizedAffinity>
-8.44209

> <CNNscore>
0.7084444165

> <CNNaffinity>
6.7596983910

> <CNN_VS>
4.7888708115

> <CNNaffinity_variance>
0.0947550908

$$$$
[H]c1nc([H])c2c(C(=O)N([H])[H])nn(-c3c([H])c([H])c([H])c(C(=O)N4C([H])([H])C([H])([H])N(C([H])([H])[H])C([H])([H])C4([H])[H])c3[H])c2c1[H]


 29 32  0  0  0  0  0  0  0  0999 V2000
  -89.1455   27.8130    0.1964 C   0  0  0  0  0  0  0  0  0  0  0  0
  -90.1213   28.6976   -0.1667 C   0  0  0  0  0  0  0  0  0  0  0  0
  -89.8327   30.0219   -0.3779 C   0  0  0  0  0  0  0  0  0  0  0  0
  -88.5459   30.4743   -0.2225 C   0  0  0  0  0  0  0  0  0  0  0  0
  -87.5164   29.6367    0.1432 C   0  0  0  0  0  0  0  0  0  0  0  0
  -87.8441   28.3209    0.3443 C   0  0  0  0  0  0  0  0  0  0  0  0
  -93.1561   23.8017   -1.7272 C   0  0  0  0  0  0  0  0  0  0  0  0
  -91.7190   23.8582   -1.6146 N   0  0  0  0  0  0  0  0  0  0  0  0
  -91.3699   23.7442   -0.2375 C   0  0  0  0  0  0  0  0  0  0  0  0
  -89.9196   24.0219    0.0835 C   0  0  0  0  0  0  0  0  0  0  0  0
  -89.6896   25.3901   -0.5261 N   0  0  0  0  0  0  0  0  0  0  0  0
  -89.8201   25.3445   -1.9359 C   0  0  0  0  0  0  0  0  0  0  0  0
  -91.2906   25.0944   -2.2523 C   0  0  0  0  0  0  0  0  0  0  0  0
  -89.3736   26.3829    0.3788 C   0  0  0  0  0  0  0  0  0  0  0  0
  -89.2462   26.0242    1.6262 O   0  0  0  0  0  0  0  0  0  0  0  0
  -86.1771   30.1214    0.3026 N   0  0  0  0  0  0  0  0  0  0  0  0
  -85.6210   31.1915   -0.1980 N   0  0  0  0  0  0  0  0  0  0  0  0
  -84.3266   31.3136    0.1821 C   0  0  0  0  0  0  0  0  0  0  0  0
  -84.0704   30.2222    0.9850 C   0  0  0  0  0  0  0  0  0  0  0  0
  -82.9822   29.7495    1.6800 C   0  0  0  0  0  0  0  0  0  0  0  0
  -83.0333   28.6149    2.4021 N   0  0  0  0  0  0  0  0  0  0  0  0
  -84.1816   27.8980    2.4620 C   0  0  0  0  0  0  0  0  0  0  0  0
  -85.3010   28.3224    1.7874 C   0  0  0  0  0  0  0  0  0  0  0  0
  -85.2577   29.4801    1.0475 C   0  0  0  0  0  0  0  0  0  0  0  0
  -83.3985   32.3677   -0.1761 C   0  0  0  0  0  0  0  0  0  0  0  0
  -82.0525   32.4552    0.2314 N   0  0  0  0  0  0  0  0  0  0  0  0
  -83.8198   33.3109   -0.9278 O   0  0  0  0  0  0  0  0  0  0  0  0
  -81.3252   32.0278   -0.3828 H   0  0  0  0  0  0  0  0  0  0  0  0
  -81.7178   32.9167    1.1055 H   0  0  0  0  0  0  0  0  0  0  0  0
  7  8  1  0  0  0
  8  9  1  0  0  0
  9 10  1  0  0  0
 10 11  1  0  0  0
 11 12  1  0  0  0
 12 13  1  0  0  0
 11 14  1  0  0  0
 14 15  2  0  0  0
 14  1  1  0  0  0
  1  2  2  0  0  0
  2  3  1  0  0  0
  3  4  2  0  0  0
  4  5  1  0  0  0
  5  6  2  0  0  0
  5 16  1  0  0  0
 16 17  1  0  0  0
 17 18  2  0  0  0
 18 25  1  0  0  0
 25 26  1  0  0  0
 25 27  2  0  0  0
 18 19  1  0  0  0
 19 20  2  0  0  0
 20 21  1  0  0  0
 21 22  2  0  0  0
 22 23  1  0  0  0
 23 24  2  0  0  0
 13  8  1  0  0  0
  6  1  1  0  0  0
 24 16  1  0  0  0
 24 19  1  0  0  0
 26 28  1  0  0  0
 26 29  1  0  0  0
M  END
> <minimizedAffinity>
-8.66908

> <CNNscore>
0.6248275042

> <CNNaffinity>
6.5183982849

> <CNN_VS>
4.0728745461

> <CNNaffinity_variance>
0.0506891906

$$$$
[H]c1nc([H])c2c(C(=O)N([H])[H])nn(-c3c([H])c([H])c([H])c(C(=O)N4C([H])([H])C([H])([H])N(C([H])([H])[H])C([H])([H])C4([H])[H])c3[H])c2c1[H]


 29 32  0  0  0  0  0  0  0  0999 V2000
  -84.9926   29.8819    1.1524 C   0  0  0  0  0  0  0  0  0  0  0  0
  -83.8053   30.4522    1.5152 C   0  0  0  0  0  0  0  0  0  0  0  0
  -83.4482   31.6949    1.0571 C   0  0  0  0  0  0  0  0  0  0  0  0
  -84.2906   32.3826    0.2192 C   0  0  0  0  0  0  0  0  0  0  0  0
  -85.5000   31.8652   -0.1862 C   0  0  0  0  0  0  0  0  0  0  0  0
  -85.8218   30.6218    0.2931 C   0  0  0  0  0  0  0  0  0  0  0  0
  -90.2836   27.1371    1.7420 C   0  0  0  0  0  0  0  0  0  0  0  0
  -88.9781   26.7755    1.2457 N   0  0  0  0  0  0  0  0  0  0  0  0
  -88.0985   26.6272    2.3573 C   0  0  0  0  0  0  0  0  0  0  0  0
  -86.6361   26.4825    2.0053 C   0  0  0  0  0  0  0  0  0  0  0  0
  -86.3717   27.6941    1.1344 N   0  0  0  0  0  0  0  0  0  0  0  0
  -87.1157   27.6245   -0.0690 C   0  0  0  0  0  0  0  0  0  0  0  0
  -88.5869   27.8017    0.2907 C   0  0  0  0  0  0  0  0  0  0  0  0
  -85.4584   28.5912    1.6498 C   0  0  0  0  0  0  0  0  0  0  0  0
  -84.8871   28.2681    2.7768 O   0  0  0  0  0  0  0  0  0  0  0  0
  -86.3705   32.5930   -1.0619 N   0  0  0  0  0  0  0  0  0  0  0  0
  -86.1313   33.6757   -1.7514 N   0  0  0  0  0  0  0  0  0  0  0  0
  -87.2120   34.0680   -2.4678 C   0  0  0  0  0  0  0  0  0  0  0  0
  -88.1970   33.1435   -2.1909 C   0  0  0  0  0  0  0  0  0  0  0  0
  -89.5032   32.9563   -2.5774 C   0  0  0  0  0  0  0  0  0  0  0  0
  -90.2416   31.9259   -2.1252 N   0  0  0  0  0  0  0  0  0  0  0  0
  -89.7036   31.0312   -1.2614 C   0  0  0  0  0  0  0  0  0  0  0  0
  -88.4026   31.1681   -0.8407 C   0  0  0  0  0  0  0  0  0  0  0  0
  -87.6413   32.2177   -1.2975 C   0  0  0  0  0  0  0  0  0  0  0  0
  -87.3186   35.2176   -3.3440 C   0  0  0  0  0  0  0  0  0  0  0  0
  -86.6367   35.3900   -4.5650 N   0  0  0  0  0  0  0  0  0  0  0  0
  -88.0954   36.1702   -2.9956 O   0  0  0  0  0  0  0  0  0  0  0  0
  -87.1062   35.0668   -5.4391 H   0  0  0  0  0  0  0  0  0  0  0  0
  -85.6911   35.8186   -4.6701 H   0  0  0  0  0  0  0  0  0  0  0  0
  7  8  1  0  0  0
  8  9  1  0  0  0
  9 10  1  0  0  0
 10 11  1  0  0  0
 11 12  1  0  0  0
 12 13  1  0  0  0
 11 14  1  0  0  0
 14 15  2  0  0  0
 14  1  1  0  0  0
  1  2  2  0  0  0
  2  3  1  0  0  0
  3  4  2  0  0  0
  4  5  1  0  0  0
  5  6  2  0  0  0
  5 16  1  0  0  0
 16 17  1  0  0  0
 17 18  2  0  0  0
 18 25  1  0  0  0
 25 26  1  0  0  0
 25 27  2  0  0  0
 18 19  1  0  0  0
 19 20  2  0  0  0
 20 21  1  0  0  0
 21 22  2  0  0  0
 22 23  1  0  0  0
 23 24  2  0  0  0
 13  8  1  0  0  0
  6  1  1  0  0  0
 24 16  1  0  0  0
 24 19  1  0  0  0
 26 28  1  0  0  0
 26 29  1  0  0  0
M  END
> <minimizedAffinity>
-8.97490

> <CNNscore>
0.6001380682

> <CNNaffinity>
6.7538666725

> <CNN_VS>
4.0532526970

> <CNNaffinity_variance>
0.1983045638

$$$$
[H]c1nc([H])c2c(C(=O)N([H])[H])nn(-c3c([H])c([H])c([H])c(C(=O)N4C([H])([H])C([H])([H])N(C([H])([H])[H])C([H])([H])C4([H])[H])c3[H])c2c1[H]


 29 32  0  0  0  0  0  0  0  0999 V2000
  -89.0836   28.0265    0.5115 C   0  0  0  0  0  0  0  0  0  0  0  0
  -89.8389   28.6299   -0.4539 C   0  0  0  0  0  0  0  0  0  0  0  0
  -89.3465   29.6828   -1.1822 C   0  0  0  0  0  0  0  0  0  0  0  0
  -88.0763   30.1451   -0.9425 C   0  0  0  0  0  0  0  0  0  0  0  0
  -87.2636   29.5838    0.0163 C   0  0  0  0  0  0  0  0  0  0  0  0
  -87.7906   28.5336    0.7224 C   0  0  0  0  0  0  0  0  0  0  0  0
  -89.5691   26.6244    6.3145 C   0  0  0  0  0  0  0  0  0  0  0  0
  -90.4055   26.5024    5.1453 N   0  0  0  0  0  0  0  0  0  0  0  0
  -89.8784   25.4666    4.3202 C   0  0  0  0  0  0  0  0  0  0  0  0
  -90.4933   25.3654    2.9436 C   0  0  0  0  0  0  0  0  0  0  0  0
  -90.3344   26.7683    2.3933 N   0  0  0  0  0  0  0  0  0  0  0  0
  -91.0997   27.6956    3.1423 C   0  0  0  0  0  0  0  0  0  0  0  0
  -90.4555   27.8153    4.5192 C   0  0  0  0  0  0  0  0  0  0  0  0
  -89.5246   26.8667    1.2801 C   0  0  0  0  0  0  0  0  0  0  0  0
  -89.0494   25.7524    0.7971 O   0  0  0  0  0  0  0  0  0  0  0  0
  -85.9392   30.0759    0.2573 N   0  0  0  0  0  0  0  0  0  0  0  0
  -85.3729   31.1695   -0.1767 N   0  0  0  0  0  0  0  0  0  0  0  0
  -84.0995   31.2906    0.2692 C   0  0  0  0  0  0  0  0  0  0  0  0
  -83.8687   30.1729    1.0431 C   0  0  0  0  0  0  0  0  0  0  0  0
  -82.8092   29.6860    1.7716 C   0  0  0  0  0  0  0  0  0  0  0  0
  -82.8808   28.5250    2.4485 N   0  0  0  0  0  0  0  0  0  0  0  0
  -84.0220   27.7946    2.4271 C   0  0  0  0  0  0  0  0  0  0  0  0
  -85.1131   28.2322    1.7157 C   0  0  0  0  0  0  0  0  0  0  0  0
  -85.0487   29.4170    1.0214 C   0  0  0  0  0  0  0  0  0  0  0  0
  -83.1683   32.3668   -0.0054 C   0  0  0  0  0  0  0  0  0  0  0  0
  -81.8078   32.3938    0.3607 N   0  0  0  0  0  0  0  0  0  0  0  0
  -83.6006   33.3912   -0.6346 O   0  0  0  0  0  0  0  0  0  0  0  0
  -81.1087   32.0275   -0.3220 H   0  0  0  0  0  0  0  0  0  0  0  0
  -81.4362   32.7532    1.2672 H   0  0  0  0  0  0  0  0  0  0  0  0
  7  8  1  0  0  0
  8  9  1  0  0  0
  9 10  1  0  0  0
 10 11  1  0  0  0
 11 12  1  0  0  0
 12 13  1  0  0  0
 11 14  1  0  0  0
 14 15  2  0  0  0
 14  1  1  0  0  0
  1  2  2  0  0  0
  2  3  1  0  0  0
  3  4  2  0  0  0
  4  5  1  0  0  0
  5  6  2  0  0  0
  5 16  1  0  0  0
 16 17  1  0  0  0
 17 18  2  0  0  0
 18 25  1  0  0  0
 25 26  1  0  0  0
 25 27  2  0  0  0
 18 19  1  0  0  0
 19 20  2  0  0  0
 20 21  1  0  0  0
 21 22  2  0  0  0
 22 23  1  0  0  0
 23 24  2  0  0  0
 13  8  1  0  0  0
  6  1  1  0  0  0
 24 16  1  0  0  0
 24 19  1  0  0  0
 26 28  1  0  0  0
 26 29  1  0  0  0
M  END
> <minimizedAffinity>
-9.18221

> <CNNscore>
0.5335072279

> <CNNaffinity>
6.5403413773

> <CNN_VS>
3.4893193245

> <CNNaffinity_variance>
0.0316682495

$$$$
[H]c1nc([H])c2c(C(=O)N([H])[H])nn(-c3c([H])c([H])c([H])c(C(=O)N4C([H])([H])C([H])([H])N(C([H])([H])[H])C([H])([H])C4([H])[H])c3[H])c2c1[H]


 29 32  0  0  0  0  0  0  0  0999 V2000
  -87.1880   27.2115    1.4139 C   0  0  0  0  0  0  0  0  0  0  0  0
  -86.0138   26.8842    2.0311 C   0  0  0  0  0  0  0  0  0  0  0  0
  -84.9466   27.7459    2.0238 C   0  0  0  0  0  0  0  0  0  0  0  0
  -85.0508   28.9577    1.3872 C   0  0  0  0  0  0  0  0  0  0  0  0
  -86.2039   29.3486    0.7451 C   0  0  0  0  0  0  0  0  0  0  0  0
  -87.2483   28.4611    0.7750 C   0  0  0  0  0  0  0  0  0  0  0  0
  -92.3296   26.9241   -1.6448 C   0  0  0  0  0  0  0  0  0  0  0  0
  -91.3273   25.9812   -1.2117 N   0  0  0  0  0  0  0  0  0  0  0  0
  -91.4563   25.8012    0.1962 C   0  0  0  0  0  0  0  0  0  0  0  0
  -90.3348   25.0287    0.8512 C   0  0  0  0  0  0  0  0  0  0  0  0
  -89.0964   25.7831    0.4110 N   0  0  0  0  0  0  0  0  0  0  0  0
  -88.9216   25.6944   -0.9919 C   0  0  0  0  0  0  0  0  0  0  0  0
  -90.0388   26.5011   -1.6448 C   0  0  0  0  0  0  0  0  0  0  0  0
  -88.3784   26.3673    1.4346 C   0  0  0  0  0  0  0  0  0  0  0  0
  -88.8026   26.1525    2.6490 O   0  0  0  0  0  0  0  0  0  0  0  0
  -86.3000   30.6164    0.0836 N   0  0  0  0  0  0  0  0  0  0  0  0
  -87.3353   31.1766   -0.4817 N   0  0  0  0  0  0  0  0  0  0  0  0
  -87.0314   32.3885   -1.0051 C   0  0  0  0  0  0  0  0  0  0  0  0
  -85.6934   32.5849   -0.7355 C   0  0  0  0  0  0  0  0  0  0  0  0
  -84.7789   33.5814   -0.9831 C   0  0  0  0  0  0  0  0  0  0  0  0
  -83.4967   33.4897   -0.5846 N   0  0  0  0  0  0  0  0  0  0  0  0
  -83.0691   32.3910    0.0834 C   0  0  0  0  0  0  0  0  0  0  0  0
  -83.9389   31.3635    0.3587 C   0  0  0  0  0  0  0  0  0  0  0  0
  -85.2504   31.4488   -0.0447 C   0  0  0  0  0  0  0  0  0  0  0  0
  -87.9209   33.2949   -1.7036 C   0  0  0  0  0  0  0  0  0  0  0  0
  -89.3291   33.2638   -1.6622 N   0  0  0  0  0  0  0  0  0  0  0  0
  -87.4007   34.2108   -2.4266 O   0  0  0  0  0  0  0  0  0  0  0  0
  -89.8114   33.8392   -0.9375 H   0  0  0  0  0  0  0  0  0  0  0  0
  -89.9371   32.7076   -2.3024 H   0  0  0  0  0  0  0  0  0  0  0  0
  7  8  1  0  0  0
  8  9  1  0  0  0
  9 10  1  0  0  0
 10 11  1  0  0  0
 11 12  1  0  0  0
 12 13  1  0  0  0
 11 14  1  0  0  0
 14 15  2  0  0  0
 14  1  1  0  0  0
  1  2  2  0  0  0
  2  3  1  0  0  0
  3  4  2  0  0  0
  4  5  1  0  0  0
  5  6  2  0  0  0
  5 16  1  0  0  0
 16 17  1  0  0  0
 17 18  2  0  0  0
 18 25  1  0  0  0
 25 26  1  0  0  0
 25 27  2  0  0  0
 18 19  1  0  0  0
 19 20  2  0  0  0
 20 21  1  0  0  0
 21 22  2  0  0  0
 22 23  1  0  0  0
 23 24  2  0  0  0
 13  8  1  0  0  0
  6  1  1  0  0  0
 24 16  1  0  0  0
 24 19  1  0  0  0
 26 28  1  0  0  0
 26 29  1  0  0  0
M  END
> <minimizedAffinity>
-9.16884

> <CNNscore>
0.5144221187

> <CNNaffinity>
6.4771523476

> <CNN_VS>
3.3319904804

> <CNNaffinity_variance>
0.0701154023

$$$$
[H]c1nc([H])c2c(C(=O)N([H])[H])nn(-c3c([H])c([H])c([H])c(C(=O)N4C([H])([H])C([H])([H])N(C([H])([H])[H])C([H])([H])C4([H])[H])c3[H])c2c1[H]


 29 32  0  0  0  0  0  0  0  0999 V2000
  -89.0798   31.5266   -2.5505 C   0  0  0  0  0  0  0  0  0  0  0  0
  -88.8884   32.8702   -2.3930 C   0  0  0  0  0  0  0  0  0  0  0  0
  -87.9750   33.3537   -1.4911 C   0  0  0  0  0  0  0  0  0  0  0  0
  -87.2384   32.4807   -0.7294 C   0  0  0  0  0  0  0  0  0  0  0  0
  -87.3831   31.1161   -0.8372 C   0  0  0  0  0  0  0  0  0  0  0  0
  -88.3046   30.6716   -1.7496 C   0  0  0  0  0  0  0  0  0  0  0  0
  -93.3008   27.2771   -2.5376 C   0  0  0  0  0  0  0  0  0  0  0  0
  -93.1871   28.6233   -3.0437 N   0  0  0  0  0  0  0  0  0  0  0  0
  -92.3234   28.6071   -4.1773 C   0  0  0  0  0  0  0  0  0  0  0  0
  -91.9059   29.9670   -4.6871 C   0  0  0  0  0  0  0  0  0  0  0  0
  -91.3333   30.6346   -3.4531 N   0  0  0  0  0  0  0  0  0  0  0  0
  -92.3360   30.8292   -2.4716 C   0  0  0  0  0  0  0  0  0  0  0  0
  -92.7302   29.4553   -1.9404 C   0  0  0  0  0  0  0  0  0  0  0  0
  -89.9912   30.9463   -3.5318 C   0  0  0  0  0  0  0  0  0  0  0  0
  -89.3937   30.6956   -4.6636 O   0  0  0  0  0  0  0  0  0  0  0  0
  -86.6083   30.2150   -0.0360 N   0  0  0  0  0  0  0  0  0  0  0  0
  -86.9289   29.0366    0.4261 N   0  0  0  0  0  0  0  0  0  0  0  0
  -85.9241   28.4864    1.1489 C   0  0  0  0  0  0  0  0  0  0  0  0
  -84.9006   29.4102    1.1259 C   0  0  0  0  0  0  0  0  0  0  0  0
  -83.6305   29.4802    1.6479 C   0  0  0  0  0  0  0  0  0  0  0  0
  -82.8349   30.5478    1.4512 N   0  0  0  0  0  0  0  0  0  0  0  0
  -83.2764   31.5993    0.7194 C   0  0  0  0  0  0  0  0  0  0  0  0
  -84.5372   31.5845    0.1732 C   0  0  0  0  0  0  0  0  0  0  0  0
  -85.3565   30.4981    0.3691 C   0  0  0  0  0  0  0  0  0  0  0  0
  -85.9183   27.1970    1.8110 C   0  0  0  0  0  0  0  0  0  0  0  0
  -87.0195   26.3261    1.9302 N   0  0  0  0  0  0  0  0  0  0  0  0
  -84.8264   26.7968    2.3399 O   0  0  0  0  0  0  0  0  0  0  0  0
  -87.1542   25.6015    1.1914 H   0  0  0  0  0  0  0  0  0  0  0  0
  -87.7197   26.3448    2.7037 H   0  0  0  0  0  0  0  0  0  0  0  0
  7  8  1  0  0  0
  8  9  1  0  0  0
  9 10  1  0  0  0
 10 11  1  0  0  0
 11 12  1  0  0  0
 12 13  1  0  0  0
 11 14  1  0  0  0
 14 15  2  0  0  0
 14  1  1  0  0  0
  1  2  2  0  0  0
  2  3  1  0  0  0
  3  4  2  0  0  0
  4  5  1  0  0  0
  5  6  2  0  0  0
  5 16  1  0  0  0
 16 17  1  0  0  0
 17 18  2  0  0  0
 18 25  1  0  0  0
 25 26  1  0  0  0
 25 27  2  0  0  0
 18 19  1  0  0  0
 19 20  2  0  0  0
 20 21  1  0  0  0
 21 22  2  0  0  0
 22 23  1  0  0  0
 23 24  2  0  0  0
 13  8  1  0  0  0
  6  1  1  0  0  0
 24 16  1  0  0  0
 24 19  1  0  0  0
 26 28  1  0  0  0
 26 29  1  0  0  0
M  END
> <minimizedAffinity>
-8.57207

> <CNNscore>
0.5118083358

> <CNNaffinity>
6.4360289574

> <CNN_VS>
3.2940132618

> <CNNaffinity_variance>
0.1943137944

$$$$
[H]OC(=O)C([H])([H])[C@@]([H])(C(=O)N([H])[C@]([H])(C([H])=C([H])c1c([H])c([H])c([H])c([H])c1[H])C([H])([H])C(=O)O[H])N([H])C(=O)[C@@]([H])(N([H])C(=O)[C@@]([H])(N([H])C(=O)C([H])([H])[H])C([H])([H])C(=O)O[H])C([H])(C([H])([H])[H])C([H])([H])[H]


 47 47  0  0  0  0  0  0  0  0999 V2000
  -91.0220   29.6438   -2.0699 C   0  0  0  0  0  0  0  0  0  0  0  0
  -89.0041   30.9669   -2.8630 C   0  0  0  0  0  0  0  0  0  0  0  0
  -88.5400   29.9252   -3.4028 O   0  0  0  0  0  0  0  0  0  0  0  0
  -90.2473   30.8439   -2.1860 N   0  0  0  0  0  0  0  0  0  0  0  0
  -90.6067   31.7284   -1.7310 H   0  0  0  0  0  0  0  0  0  0  0  0
  -88.2112   32.1977   -2.9835 C   0  0  0  0  0  0  0  0  0  0  0  0
  -88.9579   33.3446   -3.3579 N   0  0  0  0  0  0  0  0  0  0  0  0
  -88.8564   34.3096   -4.3417 C   0  0  0  0  0  0  0  0  0  0  0  0
  -87.9511   34.3664   -5.1806 O   0  0  0  0  0  0  0  0  0  0  0  0
  -89.8529   33.5271   -2.7121 H   0  0  0  0  0  0  0  0  0  0  0  0
  -89.8818   35.4208   -4.4854 C   0  0  0  0  0  0  0  0  0  0  0  0
  -91.2036   34.9839   -4.1302 N   0  0  0  0  0  0  0  0  0  0  0  0
  -92.3584   35.2539   -4.9144 C   0  0  0  0  0  0  0  0  0  0  0  0
  -93.6947   34.7929   -4.5238 C   0  0  0  0  0  0  0  0  0  0  0  0
  -92.1845   35.9192   -5.9803 O   0  0  0  0  0  0  0  0  0  0  0  0
  -91.3415   34.4366   -3.2535 H   0  0  0  0  0  0  0  0  0  0  0  0
  -89.4215   36.6394   -3.7185 C   0  0  0  0  0  0  0  0  0  0  0  0
  -89.1514   37.7994   -4.5908 C   0  0  0  0  0  0  0  0  0  0  0  0
  -88.7216   38.9976   -4.0594 O   0  0  0  0  0  0  0  0  0  0  0  0
  -89.3131   37.6984   -5.8225 O   0  0  0  0  0  0  0  0  0  0  0  0
  -89.3456   39.7634   -3.8320 H   0  0  0  0  0  0  0  0  0  0  0  0
  -87.7725   32.7022   -0.6101 C   0  0  0  0  0  0  0  0  0  0  0  0
  -87.1433   32.4117   -1.9692 C   0  0  0  0  0  0  0  0  0  0  0  0
  -86.1447   33.4752   -2.2425 C   0  0  0  0  0  0  0  0  0  0  0  0
  -90.5349   28.6938   -1.0602 C   0  0  0  0  0  0  0  0  0  0  0  0
  -91.3622   28.0109   -0.4153 O   0  0  0  0  0  0  0  0  0  0  0  0
  -89.1618   28.5108   -0.7765 N   0  0  0  0  0  0  0  0  0  0  0  0
  -88.4691   29.0729   -1.3040 H   0  0  0  0  0  0  0  0  0  0  0  0
  -88.6706   27.5801    0.2109 C   0  0  0  0  0  0  0  0  0  0  0  0
  -87.3949   28.1148    0.8247 C   0  0  0  0  0  0  0  0  0  0  0  0
  -86.5963   28.8150    0.0695 C   0  0  0  0  0  0  0  0  0  0  0  0
  -85.3347   29.3901    0.5266 C   0  0  0  0  0  0  0  0  0  0  0  0
  -84.6439   28.8344    1.6058 C   0  0  0  0  0  0  0  0  0  0  0  0
  -83.4666   29.3353    2.0717 C   0  0  0  0  0  0  0  0  0  0  0  0
  -82.9238   30.4445    1.4536 C   0  0  0  0  0  0  0  0  0  0  0  0
  -83.5618   31.0199    0.3986 C   0  0  0  0  0  0  0  0  0  0  0  0
  -84.7483   30.4907   -0.0479 C   0  0  0  0  0  0  0  0  0  0  0  0
  -88.3173   26.2704   -0.4244 C   0  0  0  0  0  0  0  0  0  0  0  0
  -88.9947   25.1764    0.2846 C   0  0  0  0  0  0  0  0  0  0  0  0
  -88.9951   23.8840   -0.1763 O   0  0  0  0  0  0  0  0  0  0  0  0
  -89.6132   25.3973    1.3687 O   0  0  0  0  0  0  0  0  0  0  0  0
  -89.2216   23.0611    0.3312 H   0  0  0  0  0  0  0  0  0  0  0  0
  -91.2797   28.9866   -3.4084 C   0  0  0  0  0  0  0  0  0  0  0  0
  -91.9773   29.7918   -4.3851 C   0  0  0  0  0  0  0  0  0  0  0  0
  -91.9142   29.6049   -5.7571 O   0  0  0  0  0  0  0  0  0  0  0  0
  -92.7118   30.7492   -4.0146 O   0  0  0  0  0  0  0  0  0  0  0  0
  -91.2705   28.9328   -6.1522 H   0  0  0  0  0  0  0  0  0  0  0  0
 22 23  1  0  0  0
 23 24  1  0  0  0
 23  6  1  0  0  0
  6  7  1  0  0  0
  7  8  1  0  0  0
  8  9  2  0  0  0
  8 11  1  0  0  0
 11 17  1  0  0  0
 17 18  1  0  0  0
 18 19  1  0  0  0
 18 20  2  0  0  0
 11 12  1  0  0  0
 12 13  1  0  0  0
 13 14  1  0  0  0
 13 15  2  0  0  0
  6  2  1  0  0  0
  2  3  2  0  0  0
  2  4  1  0  0  0
  4  1  1  0  0  0
  1 43  1  0  0  0
 43 44  1  0  0  0
 44 45  1  0  0  0
 44 46  2  0  0  0
  1 25  1  0  0  0
 25 26  2  0  0  0
 25 27  1  0  0  0
 27 29  1  0  0  0
 29 38  1  0  0  0
 38 39  1  0  0  0
 39 40  1  0  0  0
 39 41  2  0  0  0
 29 30  1  0  0  0
 30 31  2  0  0  0
 31 32  1  0  0  0
 32 33  2  0  0  0
 33 34  1  0  0  0
 34 35  2  0  0  0
 35 36  1  0  0  0
 36 37  2  0  0  0
 37 32  1  0  0  0
  7 10  1  0  0  0
 19 21  1  0  0  0
 12 16  1  0  0  0
  4  5  1  0  0  0
 45 47  1  0  0  0
 27 28  1  0  0  0
 40 42  1  0  0  0
M  END
> <minimizedAffinity>
-7.40375

> <CNNscore>
0.0792169049

> <CNNaffinity>
5.9776382446

> <CNN_VS>
0.4735299945

> <CNNaffinity_variance>
0.3857890964

$$$$
[H]OC(=O)C([H])([H])[C@@]([H])(C(=O)N([H])[C@]([H])(C([H])=C([H])c1c([H])c([H])c([H])c([H])c1[H])C([H])([H])C(=O)O[H])N([H])C(=O)[C@@]([H])(N([H])C(=O)[C@@]([H])(N([H])C(=O)C([H])([H])[H])C([H])([H])C(=O)O[H])C([H])(C([H])([H])[H])C([H])([H])[H]


 47 47  0  0  0  0  0  0  0  0999 V2000
  -90.9558   29.4294   -0.9941 C   0  0  0  0  0  0  0  0  0  0  0  0
  -89.7593   31.6333   -1.3980 C   0  0  0  0  0  0  0  0  0  0  0  0
  -90.0741   32.0109   -0.2360 O   0  0  0  0  0  0  0  0  0  0  0  0
  -90.1966   30.3416   -1.7975 N   0  0  0  0  0  0  0  0  0  0  0  0
  -89.9311   30.0556   -2.7805 H   0  0  0  0  0  0  0  0  0  0  0  0
  -88.9795   32.5673   -2.2211 C   0  0  0  0  0  0  0  0  0  0  0  0
  -89.7492   33.3251   -3.1410 N   0  0  0  0  0  0  0  0  0  0  0  0
  -90.5412   33.0375   -4.2363 C   0  0  0  0  0  0  0  0  0  0  0  0
  -90.7299   31.9037   -4.6895 O   0  0  0  0  0  0  0  0  0  0  0  0
  -89.7231   34.4264   -2.9469 H   0  0  0  0  0  0  0  0  0  0  0  0
  -91.2749   34.1234   -5.0039 C   0  0  0  0  0  0  0  0  0  0  0  0
  -90.4923   35.3223   -5.1226 N   0  0  0  0  0  0  0  0  0  0  0  0
  -90.8094   36.5378   -4.4563 C   0  0  0  0  0  0  0  0  0  0  0  0
  -89.9888   37.7450   -4.5983 C   0  0  0  0  0  0  0  0  0  0  0  0
  -91.8452   36.5364   -3.7241 O   0  0  0  0  0  0  0  0  0  0  0  0
  -89.6412   35.3184   -5.7250 H   0  0  0  0  0  0  0  0  0  0  0  0
  -91.7478   33.5763   -6.3314 C   0  0  0  0  0  0  0  0  0  0  0  0
  -91.7647   34.5950   -7.3998 C   0  0  0  0  0  0  0  0  0  0  0  0
  -90.7846   34.6169   -8.3702 O   0  0  0  0  0  0  0  0  0  0  0  0
  -92.6739   35.4472   -7.4279 O   0  0  0  0  0  0  0  0  0  0  0  0
  -89.9574   35.2003   -8.3152 H   0  0  0  0  0  0  0  0  0  0  0  0
  -87.2032   34.2495   -2.5299 C   0  0  0  0  0  0  0  0  0  0  0  0
  -87.8647   33.2876   -1.5477 C   0  0  0  0  0  0  0  0  0  0  0  0
  -86.7950   32.4654   -0.9291 C   0  0  0  0  0  0  0  0  0  0  0  0
  -90.2219   28.8542    0.1416 C   0  0  0  0  0  0  0  0  0  0  0  0
  -90.6756   29.0011    1.2989 O   0  0  0  0  0  0  0  0  0  0  0  0
  -89.0139   28.1350   -0.0090 N   0  0  0  0  0  0  0  0  0  0  0  0
  -88.6293   28.0095   -0.9632 H   0  0  0  0  0  0  0  0  0  0  0  0
  -88.2848   27.5637    1.0975 C   0  0  0  0  0  0  0  0  0  0  0  0
  -87.2044   28.5238    1.5456 C   0  0  0  0  0  0  0  0  0  0  0  0
  -86.3797   28.9834    0.6472 C   0  0  0  0  0  0  0  0  0  0  0  0
  -85.2915   29.9127    0.9361 C   0  0  0  0  0  0  0  0  0  0  0  0
  -84.2224   30.0611    0.0498 C   0  0  0  0  0  0  0  0  0  0  0  0
  -83.1830   30.9113    0.2751 C   0  0  0  0  0  0  0  0  0  0  0  0
  -83.1783   31.6654    1.4319 C   0  0  0  0  0  0  0  0  0  0  0  0
  -84.1986   31.5537    2.3249 C   0  0  0  0  0  0  0  0  0  0  0  0
  -85.2331   30.6869    2.0686 C   0  0  0  0  0  0  0  0  0  0  0  0
  -87.5860   26.3064    0.6795 C   0  0  0  0  0  0  0  0  0  0  0  0
  -88.4080   25.5844   -0.3009 C   0  0  0  0  0  0  0  0  0  0  0  0
  -88.1259   25.5806   -1.6437 O   0  0  0  0  0  0  0  0  0  0  0  0
  -89.4259   24.9273    0.0716 O   0  0  0  0  0  0  0  0  0  0  0  0
  -88.4757   24.9576   -2.3333 H   0  0  0  0  0  0  0  0  0  0  0  0
  -91.6635   28.3777   -1.8203 C   0  0  0  0  0  0  0  0  0  0  0  0
  -93.0975   28.5198   -1.9325 C   0  0  0  0  0  0  0  0  0  0  0  0
  -93.8215   29.6185   -1.4968 O   0  0  0  0  0  0  0  0  0  0  0  0
  -93.7896   27.6045   -2.4582 O   0  0  0  0  0  0  0  0  0  0  0  0
  -93.3686   30.3523   -0.9688 H   0  0  0  0  0  0  0  0  0  0  0  0
 22 23  1  0  0  0
 23 24  1  0  0  0
 23  6  1  0  0  0
  6  7  1  0  0  0
  7  8  1  0  0  0
  8  9  2  0  0  0
  8 11  1  0  0  0
 11 17  1  0  0  0
 17 18  1  0  0  0
 18 19  1  0  0  0
 18 20  2  0  0  0
 11 12  1  0  0  0
 12 13  1  0  0  0
 13 14  1  0  0  0
 13 15  2  0  0  0
  6  2  1  0  0  0
  2  3  2  0  0  0
  2  4  1  0  0  0
  4  1  1  0  0  0
  1 43  1  0  0  0
 43 44  1  0  0  0
 44 45  1  0  0  0
 44 46  2  0  0  0
  1 25  1  0  0  0
 25 26  2  0  0  0
 25 27  1  0  0  0
 27 29  1  0  0  0
 29 38  1  0  0  0
 38 39  1  0  0  0
 39 40  1  0  0  0
 39 41  2  0  0  0
 29 30  1  0  0  0
 30 31  2  0  0  0
 31 32  1  0  0  0
 32 33  2  0  0  0
 33 34  1  0  0  0
 34 35  2  0  0  0
 35 36  1  0  0  0
 36 37  2  0  0  0
 37 32  1  0  0  0
  7 10  1  0  0  0
 19 21  1  0  0  0
 12 16  1  0  0  0
  4  5  1  0  0  0
 45 47  1  0  0  0
 27 28  1  0  0  0
 40 42  1  0  0  0
M  END
> <minimizedAffinity>
-7.11594

> <CNNscore>
0.0739194602

> <CNNaffinity>
5.7709245682

> <CNN_VS>
0.4265836179

> <CNNaffinity_variance>
0.4819427133

$$$$
[H]OC(=O)C([H])([H])[C@@]([H])(C(=O)N([H])[C@]([H])(C([H])=C([H])c1c([H])c([H])c([H])c([H])c1[H])C([H])([H])C(=O)O[H])N([H])C(=O)[C@@]([H])(N([H])C(=O)[C@@]([H])(N([H])C(=O)C([H])([H])[H])C([H])([H])C(=O)O[H])C([H])(C([H])([H])[H])C([H])([H])[H]


 47 47  0  0  0  0  0  0  0  0999 V2000
  -90.8459   29.9187   -1.9601 C   0  0  0  0  0  0  0  0  0  0  0  0
  -88.6992   30.8357   -2.9615 C   0  0  0  0  0  0  0  0  0  0  0  0
  -88.3982   29.6779   -3.3626 O   0  0  0  0  0  0  0  0  0  0  0  0
  -89.9226   30.9752   -2.2522 N   0  0  0  0  0  0  0  0  0  0  0  0
  -90.1440   31.9531   -1.9156 H   0  0  0  0  0  0  0  0  0  0  0  0
  -87.7540   31.9192   -3.2624 C   0  0  0  0  0  0  0  0  0  0  0  0
  -88.2331   32.8767   -4.1933 N   0  0  0  0  0  0  0  0  0  0  0  0
  -89.2417   33.8212   -4.2058 C   0  0  0  0  0  0  0  0  0  0  0  0
  -90.0372   34.0130   -3.2801 O   0  0  0  0  0  0  0  0  0  0  0  0
  -87.6670   32.8861   -5.1581 H   0  0  0  0  0  0  0  0  0  0  0  0
  -89.4686   34.7379   -5.3953 C   0  0  0  0  0  0  0  0  0  0  0  0
  -88.2437   35.3210   -5.8680 N   0  0  0  0  0  0  0  0  0  0  0  0
  -87.9810   36.7183   -5.8544 C   0  0  0  0  0  0  0  0  0  0  0  0
  -86.7188   37.2820   -6.3443 C   0  0  0  0  0  0  0  0  0  0  0  0
  -88.8950   37.4686   -5.3954 O   0  0  0  0  0  0  0  0  0  0  0  0
  -87.4949   34.7001   -6.2437 H   0  0  0  0  0  0  0  0  0  0  0  0
  -90.2395   33.9999   -6.4660 C   0  0  0  0  0  0  0  0  0  0  0  0
  -90.7478   34.8922   -7.5266 C   0  0  0  0  0  0  0  0  0  0  0  0
  -90.9679   36.2310   -7.2777 O   0  0  0  0  0  0  0  0  0  0  0  0
  -90.9824   34.4334   -8.6615 O   0  0  0  0  0  0  0  0  0  0  0  0
  -91.8717   36.6094   -7.0179 H   0  0  0  0  0  0  0  0  0  0  0  0
  -87.8658   32.6838   -0.9209 C   0  0  0  0  0  0  0  0  0  0  0  0
  -86.9569   32.4517   -2.1240 C   0  0  0  0  0  0  0  0  0  0  0  0
  -86.1841   33.6977   -2.3548 C   0  0  0  0  0  0  0  0  0  0  0  0
  -90.4527   29.0516   -0.8409 C   0  0  0  0  0  0  0  0  0  0  0  0
  -91.3036   28.7507    0.0263 O   0  0  0  0  0  0  0  0  0  0  0  0
  -89.1451   28.5342   -0.6923 N   0  0  0  0  0  0  0  0  0  0  0  0
  -88.4330   28.7790   -1.4043 H   0  0  0  0  0  0  0  0  0  0  0  0
  -88.7469   27.6803    0.4007 C   0  0  0  0  0  0  0  0  0  0  0  0
  -87.3084   27.9669    0.7729 C   0  0  0  0  0  0  0  0  0  0  0  0
  -86.8366   29.1574    0.5308 C   0  0  0  0  0  0  0  0  0  0  0  0
  -85.4705   29.5725    0.8353 C   0  0  0  0  0  0  0  0  0  0  0  0
  -84.9225   30.7162    0.2502 C   0  0  0  0  0  0  0  0  0  0  0  0
  -83.6536   31.1428    0.4990 C   0  0  0  0  0  0  0  0  0  0  0  0
  -82.8653   30.4160    1.3691 C   0  0  0  0  0  0  0  0  0  0  0  0
  -83.3567   29.2945    1.9624 C   0  0  0  0  0  0  0  0  0  0  0  0
  -84.6412   28.8902    1.6909 C   0  0  0  0  0  0  0  0  0  0  0  0
  -88.7993   26.2395   -0.0057 C   0  0  0  0  0  0  0  0  0  0  0  0
  -89.9119   25.5703    0.6816 C   0  0  0  0  0  0  0  0  0  0  0  0
  -90.7409   26.2239    1.5581 O   0  0  0  0  0  0  0  0  0  0  0  0
  -90.1462   24.3408    0.4815 O   0  0  0  0  0  0  0  0  0  0  0  0
  -91.6297   25.9263    1.8861 H   0  0  0  0  0  0  0  0  0  0  0  0
  -91.2393   29.1335   -3.1923 C   0  0  0  0  0  0  0  0  0  0  0  0
  -91.8978   29.8836   -4.2376 C   0  0  0  0  0  0  0  0  0  0  0  0
  -91.9441   29.5109   -5.5718 O   0  0  0  0  0  0  0  0  0  0  0  0
  -92.4896   30.9658   -3.9695 O   0  0  0  0  0  0  0  0  0  0  0  0
  -91.4101   28.7173   -5.8996 H   0  0  0  0  0  0  0  0  0  0  0  0
 22 23  1  0  0  0
 23 24  1  0  0  0
 23  6  1  0  0  0
  6  7  1  0  0  0
  7  8  1  0  0  0
  8  9  2  0  0  0
  8 11  1  0  0  0
 11 17  1  0  0  0
 17 18  1  0  0  0
 18 19  1  0  0  0
 18 20  2  0  0  0
 11 12  1  0  0  0
 12 13  1  0  0  0
 13 14  1  0  0  0
 13 15  2  0  0  0
  6  2  1  0  0  0
  2  3  2  0  0  0
  2  4  1  0  0  0
  4  1  1  0  0  0
  1 43  1  0  0  0
 43 44  1  0  0  0
 44 45  1  0  0  0
 44 46  2  0  0  0
  1 25  1  0  0  0
 25 26  2  0  0  0
 25 27  1  0  0  0
 27 29  1  0  0  0
 29 38  1  0  0  0
 38 39  1  0  0  0
 39 40  1  0  0  0
 39 41  2  0  0  0
 29 30  1  0  0  0
 30 31  2  0  0  0
 31 32  1  0  0  0
 32 33  2  0  0  0
 33 34  1  0  0  0
 34 35  2  0  0  0
 35 36  1  0  0  0
 36 37  2  0  0  0
 37 32  1  0  0  0
  7 10  1  0  0  0
 19 21  1  0  0  0
 12 16  1  0  0  0
  4  5  1  0  0  0
 45 47  1  0  0  0
 27 28  1  0  0  0
 40 42  1  0  0  0
M  END
> <minimizedAffinity>
-7.38334

> <CNNscore>
0.0507788807

> <CNNaffinity>
5.7220063210

> <CNN_VS>
0.2905570865

> <CNNaffinity_variance>
0.3839257360

$$$$
[H]OC(=O)C([H])([H])[C@@]([H])(C(=O)N([H])[C@]([H])(C([H])=C([H])c1c([H])c([H])c([H])c([H])c1[H])C([H])([H])C(=O)O[H])N([H])C(=O)[C@@]([H])(N([H])C(=O)[C@@]([H])(N([H])C(=O)C([H])([H])[H])C([H])([H])C(=O)O[H])C([H])(C([H])([H])[H])C([H])([H])[H]


 47 47  0  0  0  0  0  0  0  0999 V2000
  -90.7349   29.1627   -2.4484 C   0  0  0  0  0  0  0  0  0  0  0  0
  -90.3429   27.6640   -0.4354 C   0  0  0  0  0  0  0  0  0  0  0  0
  -89.2640   27.2622   -0.9516 O   0  0  0  0  0  0  0  0  0  0  0  0
  -91.0967   28.6154   -1.1743 N   0  0  0  0  0  0  0  0  0  0  0  0
  -92.0029   28.9250   -0.7254 H   0  0  0  0  0  0  0  0  0  0  0  0
  -90.7131   27.1047    0.8715 C   0  0  0  0  0  0  0  0  0  0  0  0
  -90.7019   25.6871    0.9295 N   0  0  0  0  0  0  0  0  0  0  0  0
  -91.5433   24.6761    0.5062 C   0  0  0  0  0  0  0  0  0  0  0  0
  -92.6256   24.8537   -0.0627 O   0  0  0  0  0  0  0  0  0  0  0  0
  -89.7975   25.2665    1.4359 H   0  0  0  0  0  0  0  0  0  0  0  0
  -91.2013   23.2100    0.7071 C   0  0  0  0  0  0  0  0  0  0  0  0
  -90.2620   23.0171    1.7768 N   0  0  0  0  0  0  0  0  0  0  0  0
  -90.5639   23.2676    3.1435 C   0  0  0  0  0  0  0  0  0  0  0  0
  -89.5817   23.0600    4.2126 C   0  0  0  0  0  0  0  0  0  0  0  0
  -91.7333   23.6840    3.4048 O   0  0  0  0  0  0  0  0  0  0  0  0
  -89.3022   22.6738    1.5571 H   0  0  0  0  0  0  0  0  0  0  0  0
  -92.4731   22.4088    0.8676 C   0  0  0  0  0  0  0  0  0  0  0  0
  -92.2516   20.9526    0.7680 C   0  0  0  0  0  0  0  0  0  0  0  0
  -92.3839   20.2992   -0.4396 O   0  0  0  0  0  0  0  0  0  0  0  0
  -91.9417   20.3028    1.7854 O   0  0  0  0  0  0  0  0  0  0  0  0
  -93.2347   19.8316   -0.7312 H   0  0  0  0  0  0  0  0  0  0  0  0
  -89.6089   26.8091    3.0564 C   0  0  0  0  0  0  0  0  0  0  0  0
  -90.2035   27.8153    2.0758 C   0  0  0  0  0  0  0  0  0  0  0  0
  -91.1630   28.6649    2.8247 C   0  0  0  0  0  0  0  0  0  0  0  0
  -89.3705   29.7035   -2.5193 C   0  0  0  0  0  0  0  0  0  0  0  0
  -88.6764   29.4778   -3.5362 O   0  0  0  0  0  0  0  0  0  0  0  0
  -88.7949   30.4750   -1.4835 N   0  0  0  0  0  0  0  0  0  0  0  0
  -89.3610   30.6659   -0.6366 H   0  0  0  0  0  0  0  0  0  0  0  0
  -87.4573   31.0133   -1.5417 C   0  0  0  0  0  0  0  0  0  0  0  0
  -86.5074   30.0988   -0.7990 C   0  0  0  0  0  0  0  0  0  0  0  0
  -85.8008   30.6048    0.1720 C   0  0  0  0  0  0  0  0  0  0  0  0
  -84.8462   29.8424    0.9714 C   0  0  0  0  0  0  0  0  0  0  0  0
  -83.5136   30.2476    1.0742 C   0  0  0  0  0  0  0  0  0  0  0  0
  -82.5850   29.5698    1.8038 C   0  0  0  0  0  0  0  0  0  0  0  0
  -82.9712   28.4272    2.4762 C   0  0  0  0  0  0  0  0  0  0  0  0
  -84.2589   27.9941    2.4048 C   0  0  0  0  0  0  0  0  0  0  0  0
  -85.1723   28.7003    1.6603 C   0  0  0  0  0  0  0  0  0  0  0  0
  -87.3899   32.3419   -0.8530 C   0  0  0  0  0  0  0  0  0  0  0  0
  -87.1689   33.4036   -1.8439 C   0  0  0  0  0  0  0  0  0  0  0  0
  -85.9256   33.7071   -2.3389 O   0  0  0  0  0  0  0  0  0  0  0  0
  -88.1418   34.0874   -2.2828 O   0  0  0  0  0  0  0  0  0  0  0  0
  -85.7108   34.2342   -3.1525 H   0  0  0  0  0  0  0  0  0  0  0  0
  -91.7705   30.1288   -2.9812 C   0  0  0  0  0  0  0  0  0  0  0  0
  -92.1720   29.9321   -4.3557 C   0  0  0  0  0  0  0  0  0  0  0  0
  -91.4204   30.2988   -5.4611 O   0  0  0  0  0  0  0  0  0  0  0  0
  -93.2801   29.3910   -4.6249 O   0  0  0  0  0  0  0  0  0  0  0  0
  -90.5698   30.8332   -5.3464 H   0  0  0  0  0  0  0  0  0  0  0  0
 22 23  1  0  0  0
 23 24  1  0  0  0
 23  6  1  0  0  0
  6  7  1  0  0  0
  7  8  1  0  0  0
  8  9  2  0  0  0
  8 11  1  0  0  0
 11 17  1  0  0  0
 17 18  1  0  0  0
 18 19  1  0  0  0
 18 20  2  0  0  0
 11 12  1  0  0  0
 12 13  1  0  0  0
 13 14  1  0  0  0
 13 15  2  0  0  0
  6  2  1  0  0  0
  2  3  2  0  0  0
  2  4  1  0  0  0
  4  1  1  0  0  0
  1 43  1  0  0  0
 43 44  1  0  0  0
 44 45  1  0  0  0
 44 46  2  0  0  0
  1 25  1  0  0  0
 25 26  2  0  0  0
 25 27  1  0  0  0
 27 29  1  0  0  0
 29 38  1  0  0  0
 38 39  1  0  0  0
 39 40  1  0  0  0
 39 41  2  0  0  0
 29 30  1  0  0  0
 30 31  2  0  0  0
 31 32  1  0  0  0
 32 33  2  0  0  0
 33 34  1  0  0  0
 34 35  2  0  0  0
 35 36  1  0  0  0
 36 37  2  0  0  0
 37 32  1  0  0  0
  7 10  1  0  0  0
 19 21  1  0  0  0
 12 16  1  0  0  0
  4  5  1  0  0  0
 45 47  1  0  0  0
 27 28  1  0  0  0
 40 42  1  0  0  0
M  END
> <minimizedAffinity>
-8.49455

> <CNNscore>
0.0418619551

> <CNNaffinity>
5.8022441864

> <CNN_VS>
0.2428932786

> <CNNaffinity_variance>
0.3050566912

$$$$
[H]OC(=O)C([H])([H])[C@@]([H])(C(=O)N([H])[C@]([H])(C([H])=C([H])c1c([H])c([H])c([H])c([H])c1[H])C([H])([H])C(=O)O[H])N([H])C(=O)[C@@]([H])(N([H])C(=O)[C@@]([H])(N([H])C(=O)C([H])([H])[H])C([H])([H])C(=O)O[H])C([H])(C([H])([H])[H])C([H])([H])[H]


 47 47  0  0  0  0  0  0  0  0999 V2000
  -90.5812   25.2457   -0.5634 C   0  0  0  0  0  0  0  0  0  0  0  0
  -92.2323   26.4676   -2.0576 C   0  0  0  0  0  0  0  0  0  0  0  0
  -93.1874   25.9651   -1.4039 O   0  0  0  0  0  0  0  0  0  0  0  0
  -90.9168   26.1147   -1.6525 N   0  0  0  0  0  0  0  0  0  0  0  0
  -90.1355   26.5386   -2.2256 H   0  0  0  0  0  0  0  0  0  0  0  0
  -92.5759   27.3600   -3.1728 C   0  0  0  0  0  0  0  0  0  0  0  0
  -92.0656   28.6782   -3.0505 N   0  0  0  0  0  0  0  0  0  0  0  0
  -90.8078   29.2483   -3.0029 C   0  0  0  0  0  0  0  0  0  0  0  0
  -89.7469   28.6161   -3.0419 O   0  0  0  0  0  0  0  0  0  0  0  0
  -92.8607   29.4614   -2.9756 H   0  0  0  0  0  0  0  0  0  0  0  0
  -90.6106   30.7505   -2.8967 C   0  0  0  0  0  0  0  0  0  0  0  0
  -89.2639   31.0931   -2.5319 N   0  0  0  0  0  0  0  0  0  0  0  0
  -88.8889   31.5349   -1.2335 C   0  0  0  0  0  0  0  0  0  0  0  0
  -87.5039   31.8766   -0.8930 C   0  0  0  0  0  0  0  0  0  0  0  0
  -89.8131   31.6231   -0.3692 O   0  0  0  0  0  0  0  0  0  0  0  0
  -88.5074   31.0181   -3.2456 H   0  0  0  0  0  0  0  0  0  0  0  0
  -91.0798   31.4160   -4.1703 C   0  0  0  0  0  0  0  0  0  0  0  0
  -90.2214   32.5456   -4.5785 C   0  0  0  0  0  0  0  0  0  0  0  0
  -89.5409   32.5177   -5.7781 O   0  0  0  0  0  0  0  0  0  0  0  0
  -90.1076   33.5376   -3.8326 O   0  0  0  0  0  0  0  0  0  0  0  0
  -88.5775   32.2152   -5.8667 H   0  0  0  0  0  0  0  0  0  0  0  0
  -92.9177   27.8341   -5.5683 C   0  0  0  0  0  0  0  0  0  0  0  0
  -92.5501   26.7698   -4.5388 C   0  0  0  0  0  0  0  0  0  0  0  0
  -93.4077   25.5841   -4.7871 C   0  0  0  0  0  0  0  0  0  0  0  0
  -90.2956   25.9319    0.7041 C   0  0  0  0  0  0  0  0  0  0  0  0
  -91.1443   26.7223    1.1750 O   0  0  0  0  0  0  0  0  0  0  0  0
  -89.0953   25.7424    1.4271 N   0  0  0  0  0  0  0  0  0  0  0  0
  -88.3856   25.0912    1.0445 H   0  0  0  0  0  0  0  0  0  0  0  0
  -88.8037   26.4086    2.6735 C   0  0  0  0  0  0  0  0  0  0  0  0
  -87.3665   26.8823    2.6738 C   0  0  0  0  0  0  0  0  0  0  0  0
  -87.0794   27.9741    2.0229 C   0  0  0  0  0  0  0  0  0  0  0  0
  -85.7387   28.5456    1.9368 C   0  0  0  0  0  0  0  0  0  0  0  0
  -84.6312   27.8507    2.4278 C   0  0  0  0  0  0  0  0  0  0  0  0
  -83.3623   28.3415    2.3740 C   0  0  0  0  0  0  0  0  0  0  0  0
  -83.1525   29.5840    1.8092 C   0  0  0  0  0  0  0  0  0  0  0  0
  -84.2015   30.2978    1.3180 C   0  0  0  0  0  0  0  0  0  0  0  0
  -85.4699   29.7748    1.3871 C   0  0  0  0  0  0  0  0  0  0  0  0
  -88.9363   25.4601    3.8254 C   0  0  0  0  0  0  0  0  0  0  0  0
  -90.3143   25.4868    4.3339 C   0  0  0  0  0  0  0  0  0  0  0  0
  -91.3037   24.6785    3.8336 O   0  0  0  0  0  0  0  0  0  0  0  0
  -90.6392   26.2748    5.2722 O   0  0  0  0  0  0  0  0  0  0  0  0
  -92.1798   24.4665    4.2502 H   0  0  0  0  0  0  0  0  0  0  0  0
  -89.5137   24.2383   -0.9314 C   0  0  0  0  0  0  0  0  0  0  0  0
  -89.9488   22.8640   -1.0349 C   0  0  0  0  0  0  0  0  0  0  0  0
  -89.1970   21.7637   -0.6535 O   0  0  0  0  0  0  0  0  0  0  0  0
  -91.0895   22.5899   -1.5007 O   0  0  0  0  0  0  0  0  0  0  0  0
  -88.2333   21.8768   -0.3694 H   0  0  0  0  0  0  0  0  0  0  0  0
 22 23  1  0  0  0
 23 24  1  0  0  0
 23  6  1  0  0  0
  6  7  1  0  0  0
  7  8  1  0  0  0
  8  9  2  0  0  0
  8 11  1  0  0  0
 11 17  1  0  0  0
 17 18  1  0  0  0
 18 19  1  0  0  0
 18 20  2  0  0  0
 11 12  1  0  0  0
 12 13  1  0  0  0
 13 14  1  0  0  0
 13 15  2  0  0  0
  6  2  1  0  0  0
  2  3  2  0  0  0
  2  4  1  0  0  0
  4  1  1  0  0  0
  1 43  1  0  0  0
 43 44  1  0  0  0
 44 45  1  0  0  0
 44 46  2  0  0  0
  1 25  1  0  0  0
 25 26  2  0  0  0
 25 27  1  0  0  0
 27 29  1  0  0  0
 29 38  1  0  0  0
 38 39  1  0  0  0
 39 40  1  0  0  0
 39 41  2  0  0  0
 29 30  1  0  0  0
 30 31  2  0  0  0
 31 32  1  0  0  0
 32 33  2  0  0  0
 33 34  1  0  0  0
 34 35  2  0  0  0
 35 36  1  0  0  0
 36 37  2  0  0  0
 37 32  1  0  0  0
  7 10  1  0  0  0
 19 21  1  0  0  0
 12 16  1  0  0  0
  4  5  1  0  0  0
 45 47  1  0  0  0
 27 28  1  0  0  0
 40 42  1  0  0  0
M  END
> <minimizedAffinity>
-7.84327

> <CNNscore>
0.0404623672

> <CNNaffinity>
5.6063041687

> <CNN_VS>
0.2268443406

> <CNNaffinity_variance>
0.4607059956

$$$$
[H]OC(=O)C([H])([H])[C@@]([H])(C(=O)N([H])[C@]([H])(C([H])=C([H])c1c([H])c([H])c([H])c([H])c1[H])C([H])([H])C(=O)O[H])N([H])C(=O)[C@@]([H])(N([H])C(=O)[C@@]([H])(N([H])C(=O)C([H])([H])[H])C([H])([H])C(=O)O[H])C([H])(C([H])([H])[H])C([H])([H])[H]


 47 47  0  0  0  0  0  0  0  0999 V2000
  -88.8045   27.0548    2.2242 C   0  0  0  0  0  0  0  0  0  0  0  0
  -88.1560   28.6841    0.3865 C   0  0  0  0  0  0  0  0  0  0  0  0
  -89.2685   28.4854   -0.1746 O   0  0  0  0  0  0  0  0  0  0  0  0
  -87.9039   27.9716    1.5899 N   0  0  0  0  0  0  0  0  0  0  0  0
  -86.9590   28.1460    2.0320 H   0  0  0  0  0  0  0  0  0  0  0  0
  -87.2334   29.6252   -0.2624 C   0  0  0  0  0  0  0  0  0  0  0  0
  -87.8360   30.4638   -1.2353 N   0  0  0  0  0  0  0  0  0  0  0  0
  -88.7914   31.4620   -1.2214 C   0  0  0  0  0  0  0  0  0  0  0  0
  -89.3962   31.8428   -0.2135 O   0  0  0  0  0  0  0  0  0  0  0  0
  -87.4557   30.2912   -2.2731 H   0  0  0  0  0  0  0  0  0  0  0  0
  -89.1951   32.2048   -2.4831 C   0  0  0  0  0  0  0  0  0  0  0  0
  -88.1604   33.0894   -2.9423 N   0  0  0  0  0  0  0  0  0  0  0  0
  -88.3868   34.4475   -3.2972 C   0  0  0  0  0  0  0  0  0  0  0  0
  -87.3077   35.3251   -3.7623 C   0  0  0  0  0  0  0  0  0  0  0  0
  -89.5763   34.8759   -3.1942 O   0  0  0  0  0  0  0  0  0  0  0  0
  -87.1839   32.7329   -3.0246 H   0  0  0  0  0  0  0  0  0  0  0  0
  -89.6538   31.2159   -3.5304 C   0  0  0  0  0  0  0  0  0  0  0  0
  -88.7124   31.0985   -4.6616 C   0  0  0  0  0  0  0  0  0  0  0  0
  -88.9501   31.7585   -5.8493 O   0  0  0  0  0  0  0  0  0  0  0  0
  -87.6901   30.3952   -4.5455 O   0  0  0  0  0  0  0  0  0  0  0  0
  -89.4066   31.3282   -6.6456 H   0  0  0  0  0  0  0  0  0  0  0  0
  -85.8371   31.6335    0.0493 C   0  0  0  0  0  0  0  0  0  0  0  0
  -86.2011   30.2590    0.6023 C   0  0  0  0  0  0  0  0  0  0  0  0
  -84.9385   29.5096    0.8201 C   0  0  0  0  0  0  0  0  0  0  0  0
  -89.0556   25.8195    1.4693 C   0  0  0  0  0  0  0  0  0  0  0  0
  -88.2433   25.4695    0.5836 O   0  0  0  0  0  0  0  0  0  0  0  0
  -90.1830   24.9965    1.6953 N   0  0  0  0  0  0  0  0  0  0  0  0
  -90.8623   25.2787    2.4254 H   0  0  0  0  0  0  0  0  0  0  0  0
  -90.4401   23.7804    0.9624 C   0  0  0  0  0  0  0  0  0  0  0  0
  -91.6095   23.9882    0.0247 C   0  0  0  0  0  0  0  0  0  0  0  0
  -91.3926   24.6112   -1.0992 C   0  0  0  0  0  0  0  0  0  0  0  0
  -92.4246   24.8825   -2.0956 C   0  0  0  0  0  0  0  0  0  0  0  0
  -93.7547   24.5245   -1.8645 C   0  0  0  0  0  0  0  0  0  0  0  0
  -94.7523   24.7527   -2.7626 C   0  0  0  0  0  0  0  0  0  0  0  0
  -94.4425   25.3661   -3.9604 C   0  0  0  0  0  0  0  0  0  0  0  0
  -93.1600   25.7321   -4.2294 C   0  0  0  0  0  0  0  0  0  0  0  0
  -92.1759   25.4882   -3.3024 C   0  0  0  0  0  0  0  0  0  0  0  0
  -90.8353   22.6743    1.8921 C   0  0  0  0  0  0  0  0  0  0  0  0
  -90.7060   23.1263    3.2840 C   0  0  0  0  0  0  0  0  0  0  0  0
  -89.5422   22.9969    3.9992 O   0  0  0  0  0  0  0  0  0  0  0  0
  -91.6875   23.6623    3.8807 O   0  0  0  0  0  0  0  0  0  0  0  0
  -89.2945   23.4627    4.8404 H   0  0  0  0  0  0  0  0  0  0  0  0
  -90.0813   27.7214    2.6878 C   0  0  0  0  0  0  0  0  0  0  0  0
  -90.4262   27.5307    4.0784 C   0  0  0  0  0  0  0  0  0  0  0  0
  -91.0794   26.4194    4.5877 O   0  0  0  0  0  0  0  0  0  0  0  0
  -90.1340   28.4113    4.9342 O   0  0  0  0  0  0  0  0  0  0  0  0
  -91.4469   25.7126    3.9651 H   0  0  0  0  0  0  0  0  0  0  0  0
 22 23  1  0  0  0
 23 24  1  0  0  0
 23  6  1  0  0  0
  6  7  1  0  0  0
  7  8  1  0  0  0
  8  9  2  0  0  0
  8 11  1  0  0  0
 11 17  1  0  0  0
 17 18  1  0  0  0
 18 19  1  0  0  0
 18 20  2  0  0  0
 11 12  1  0  0  0
 12 13  1  0  0  0
 13 14  1  0  0  0
 13 15  2  0  0  0
  6  2  1  0  0  0
  2  3  2  0  0  0
  2  4  1  0  0  0
  4  1  1  0  0  0
  1 43  1  0  0  0
 43 44  1  0  0  0
 44 45  1  0  0  0
 44 46  2  0  0  0
  1 25  1  0  0  0
 25 26  2  0  0  0
 25 27  1  0  0  0
 27 29  1  0  0  0
 29 38  1  0  0  0
 38 39  1  0  0  0
 39 40  1  0  0  0
 39 41  2  0  0  0
 29 30  1  0  0  0
 30 31  2  0  0  0
 31 32  1  0  0  0
 32 33  2  0  0  0
 33 34  1  0  0  0
 34 35  2  0  0  0
 35 36  1  0  0  0
 36 37  2  0  0  0
 37 32  1  0  0  0
  7 10  1  0  0  0
 19 21  1  0  0  0
 12 16  1  0  0  0
  4  5  1  0  0  0
 45 47  1  0  0  0
 27 28  1  0  0  0
 40 42  1  0  0  0
M  END
> <minimizedAffinity>
-7.64353

> <CNNscore>
0.0312637240

> <CNNaffinity>
5.2979693413

> <CNN_VS>
0.1656342447

> <CNNaffinity_variance>
0.6388100982

$$$$
[H]OC(=O)C([H])([H])[C@@]([H])(C(=O)N([H])[C@]([H])(C([H])=C([H])c1c([H])c([H])c([H])c([H])c1[H])C([H])([H])C(=O)O[H])N([H])C(=O)[C@@]([H])(N([H])C(=O)[C@@]([H])(N([H])C(=O)C([H])([H])[H])C([H])([H])C(=O)O[H])C([H])(C([H])([H])[H])C([H])([H])[H]


 47 47  0  0  0  0  0  0  0  0999 V2000
  -89.6977   27.2372    1.7279 C   0  0  0  0  0  0  0  0  0  0  0  0
  -88.7152   28.9557    0.1362 C   0  0  0  0  0  0  0  0  0  0  0  0
  -87.5769   28.7709    0.6480 O   0  0  0  0  0  0  0  0  0  0  0  0
  -89.7928   28.1973    0.6681 N   0  0  0  0  0  0  0  0  0  0  0  0
  -90.7379   28.3815    0.2306 H   0  0  0  0  0  0  0  0  0  0  0  0
  -88.8127   29.9383   -0.9515 C   0  0  0  0  0  0  0  0  0  0  0  0
  -87.7396   30.8649   -1.0054 N   0  0  0  0  0  0  0  0  0  0  0  0
  -87.6039   32.2284   -0.8265 C   0  0  0  0  0  0  0  0  0  0  0  0
  -88.5343   33.0004   -0.5718 O   0  0  0  0  0  0  0  0  0  0  0  0
  -86.7538   30.3953   -1.2484 H   0  0  0  0  0  0  0  0  0  0  0  0
  -86.2563   32.9214   -0.9285 C   0  0  0  0  0  0  0  0  0  0  0  0
  -85.2548   32.2734   -0.1278 N   0  0  0  0  0  0  0  0  0  0  0  0
  -83.9034   32.7091   -0.0542 C   0  0  0  0  0  0  0  0  0  0  0  0
  -82.9048   32.0252    0.7740 C   0  0  0  0  0  0  0  0  0  0  0  0
  -83.5913   33.7273   -0.7434 O   0  0  0  0  0  0  0  0  0  0  0  0
  -85.5163   31.4373    0.4378 H   0  0  0  0  0  0  0  0  0  0  0  0
  -85.8677   33.0658   -2.3822 C   0  0  0  0  0  0  0  0  0  0  0  0
  -86.8346   33.8667   -3.1589 C   0  0  0  0  0  0  0  0  0  0  0  0
  -87.3773   33.3782   -4.3292 O   0  0  0  0  0  0  0  0  0  0  0  0
  -87.1662   34.9984   -2.7554 O   0  0  0  0  0  0  0  0  0  0  0  0
  -87.0043   33.5885   -5.2480 H   0  0  0  0  0  0  0  0  0  0  0  0
  -88.1662   28.8789   -3.0821 C   0  0  0  0  0  0  0  0  0  0  0  0
  -89.3205   29.4445   -2.2604 C   0  0  0  0  0  0  0  0  0  0  0  0
  -90.0555   30.4093   -3.1160 C   0  0  0  0  0  0  0  0  0  0  0  0
  -89.5046   25.8499    1.2840 C   0  0  0  0  0  0  0  0  0  0  0  0
  -88.4035   25.5139    0.7925 O   0  0  0  0  0  0  0  0  0  0  0  0
  -90.5127   24.8635    1.3846 N   0  0  0  0  0  0  0  0  0  0  0  0
  -91.4284   25.1323    1.7886 H   0  0  0  0  0  0  0  0  0  0  0  0
  -90.3351   23.4976    0.9543 C   0  0  0  0  0  0  0  0  0  0  0  0
  -91.2719   23.2002   -0.1964 C   0  0  0  0  0  0  0  0  0  0  0  0
  -91.4887   24.1415   -1.0711 C   0  0  0  0  0  0  0  0  0  0  0  0
  -92.3674   23.9956   -2.2278 C   0  0  0  0  0  0  0  0  0  0  0  0
  -92.9149   22.7541   -2.5590 C   0  0  0  0  0  0  0  0  0  0  0  0
  -93.7364   22.5657   -3.6284 C   0  0  0  0  0  0  0  0  0  0  0  0
  -94.0473   23.6479   -4.4279 C   0  0  0  0  0  0  0  0  0  0  0  0
  -93.5368   24.8766   -4.1441 C   0  0  0  0  0  0  0  0  0  0  0  0
  -92.7109   25.0341   -3.0577 C   0  0  0  0  0  0  0  0  0  0  0  0
  -90.6976   22.5445    2.0516 C   0  0  0  0  0  0  0  0  0  0  0  0
  -90.6417   23.2350    3.3471 C   0  0  0  0  0  0  0  0  0  0  0  0
  -89.4687   23.4306    4.0315 O   0  0  0  0  0  0  0  0  0  0  0  0
  -91.6990   23.6820    3.8846 O   0  0  0  0  0  0  0  0  0  0  0  0
  -89.3023   24.0645    4.7775 H   0  0  0  0  0  0  0  0  0  0  0  0
  -90.8167   27.3732    2.7373 C   0  0  0  0  0  0  0  0  0  0  0  0
  -90.4230   27.3377    4.1276 C   0  0  0  0  0  0  0  0  0  0  0  0
  -90.2671   26.1828    4.8780 O   0  0  0  0  0  0  0  0  0  0  0  0
  -90.1920   28.4100    4.7522 O   0  0  0  0  0  0  0  0  0  0  0  0
  -90.5319   25.2851    4.4954 H   0  0  0  0  0  0  0  0  0  0  0  0
 22 23  1  0  0  0
 23 24  1  0  0  0
 23  6  1  0  0  0
  6  7  1  0  0  0
  7  8  1  0  0  0
  8  9  2  0  0  0
  8 11  1  0  0  0
 11 17  1  0  0  0
 17 18  1  0  0  0
 18 19  1  0  0  0
 18 20  2  0  0  0
 11 12  1  0  0  0
 12 13  1  0  0  0
 13 14  1  0  0  0
 13 15  2  0  0  0
  6  2  1  0  0  0
  2  3  2  0  0  0
  2  4  1  0  0  0
  4  1  1  0  0  0
  1 43  1  0  0  0
 43 44  1  0  0  0
 44 45  1  0  0  0
 44 46  2  0  0  0
  1 25  1  0  0  0
 25 26  2  0  0  0
 25 27  1  0  0  0
 27 29  1  0  0  0
 29 38  1  0  0  0
 38 39  1  0  0  0
 39 40  1  0  0  0
 39 41  2  0  0  0
 29 30  1  0  0  0
 30 31  2  0  0  0
 31 32  1  0  0  0
 32 33  2  0  0  0
 33 34  1  0  0  0
 34 35  2  0  0  0
 35 36  1  0  0  0
 36 37  2  0  0  0
 37 32  1  0  0  0
  7 10  1  0  0  0
 19 21  1  0  0  0
 12 16  1  0  0  0
  4  5  1  0  0  0
 45 47  1  0  0  0
 27 28  1  0  0  0
 40 42  1  0  0  0
M  END
> <minimizedAffinity>
-7.49363

> <CNNscore>
0.0293041244

> <CNNaffinity>
5.3579154015

> <CNN_VS>
0.1570090204

> <CNNaffinity_variance>
0.4944485724

$$$$
[H]OC(=O)C([H])([H])[C@@]([H])(C(=O)N([H])[C@]([H])(C([H])=C([H])c1c([H])c([H])c([H])c([H])c1[H])C([H])([H])C(=O)O[H])N([H])C(=O)[C@@]([H])(N([H])C(=O)[C@@]([H])(N([H])C(=O)C([H])([H])[H])C([H])([H])C(=O)O[H])C([H])(C([H])([H])[H])C([H])([H])[H]


 47 47  0  0  0  0  0  0  0  0999 V2000
  -90.5394   28.1133   -0.8746 C   0  0  0  0  0  0  0  0  0  0  0  0
  -92.1950   27.1293   -2.5307 C   0  0  0  0  0  0  0  0  0  0  0  0
  -93.0261   28.0283   -2.2256 O   0  0  0  0  0  0  0  0  0  0  0  0
  -90.9426   27.1538   -1.8598 N   0  0  0  0  0  0  0  0  0  0  0  0
  -90.2701   26.3814   -2.1242 H   0  0  0  0  0  0  0  0  0  0  0  0
  -92.6072   26.1467   -3.5419 C   0  0  0  0  0  0  0  0  0  0  0  0
  -93.0320   24.9006   -3.0130 N   0  0  0  0  0  0  0  0  0  0  0  0
  -92.4372   23.8782   -2.2985 C   0  0  0  0  0  0  0  0  0  0  0  0
  -91.2484   23.8538   -1.9627 O   0  0  0  0  0  0  0  0  0  0  0  0
  -94.1095   24.6739   -3.2102 H   0  0  0  0  0  0  0  0  0  0  0  0
  -93.2165   22.6555   -1.8465 C   0  0  0  0  0  0  0  0  0  0  0  0
  -93.3789   21.6979   -2.9051 N   0  0  0  0  0  0  0  0  0  0  0  0
  -94.6083   21.4773   -3.5844 C   0  0  0  0  0  0  0  0  0  0  0  0
  -94.7407   20.4915   -4.6622 C   0  0  0  0  0  0  0  0  0  0  0  0
  -95.6002   22.1767   -3.2156 O   0  0  0  0  0  0  0  0  0  0  0  0
  -92.5604   21.1258   -3.2053 H   0  0  0  0  0  0  0  0  0  0  0  0
  -92.5807   22.0790   -0.6021 C   0  0  0  0  0  0  0  0  0  0  0  0
  -93.3552   22.3609    0.6227 C   0  0  0  0  0  0  0  0  0  0  0  0
  -94.5980   21.7950    0.8181 O   0  0  0  0  0  0  0  0  0  0  0  0
  -92.8838   23.1192    1.4922 O   0  0  0  0  0  0  0  0  0  0  0  0
  -95.4670   22.2626    0.5866 H   0  0  0  0  0  0  0  0  0  0  0  0
  -93.9902   25.4978   -5.4775 C   0  0  0  0  0  0  0  0  0  0  0  0
  -93.3773   26.6627   -4.7063 C   0  0  0  0  0  0  0  0  0  0  0  0
  -92.6534   27.5188   -5.6789 C   0  0  0  0  0  0  0  0  0  0  0  0
  -89.6099   29.1412   -1.3630 C   0  0  0  0  0  0  0  0  0  0  0  0
  -89.2638   29.1294   -2.5659 O   0  0  0  0  0  0  0  0  0  0  0  0
  -89.0797   30.1550   -0.5321 N   0  0  0  0  0  0  0  0  0  0  0  0
  -89.3589   30.1723    0.4658 H   0  0  0  0  0  0  0  0  0  0  0  0
  -88.1679   31.1711   -0.9997 C   0  0  0  0  0  0  0  0  0  0  0  0
  -86.8552   31.0593   -0.2551 C   0  0  0  0  0  0  0  0  0  0  0  0
  -86.4341   29.8703    0.0725 C   0  0  0  0  0  0  0  0  0  0  0  0
  -85.1899   29.6135    0.7917 C   0  0  0  0  0  0  0  0  0  0  0  0
  -84.0751   30.4350    0.6098 C   0  0  0  0  0  0  0  0  0  0  0  0
  -82.8922   30.2356    1.2540 C   0  0  0  0  0  0  0  0  0  0  0  0
  -82.7816   29.1735    2.1295 C   0  0  0  0  0  0  0  0  0  0  0  0
  -83.8413   28.3462    2.3380 C   0  0  0  0  0  0  0  0  0  0  0  0
  -85.0215   28.5741    1.6729 C   0  0  0  0  0  0  0  0  0  0  0  0
  -88.7038   32.5392   -0.7084 C   0  0  0  0  0  0  0  0  0  0  0  0
  -88.7230   33.3374   -1.9416 C   0  0  0  0  0  0  0  0  0  0  0  0
  -89.8327   33.4355   -2.7427 O   0  0  0  0  0  0  0  0  0  0  0  0
  -87.6921   33.9752   -2.3119 O   0  0  0  0  0  0  0  0  0  0  0  0
  -90.0105   34.1096   -3.4497 H   0  0  0  0  0  0  0  0  0  0  0  0
  -90.0661   27.4653    0.4083 C   0  0  0  0  0  0  0  0  0  0  0  0
  -90.1673   26.0246    0.4646 C   0  0  0  0  0  0  0  0  0  0  0  0
  -91.3392   25.3207    0.6936 O   0  0  0  0  0  0  0  0  0  0  0  0
  -89.1423   25.3066    0.2999 O   0  0  0  0  0  0  0  0  0  0  0  0
  -92.1889   25.8096    0.9417 H   0  0  0  0  0  0  0  0  0  0  0  0
 22 23  1  0  0  0
 23 24  1  0  0  0
 23  6  1  0  0  0
  6  7  1  0  0  0
  7  8  1  0  0  0
  8  9  2  0  0  0
  8 11  1  0  0  0
 11 17  1  0  0  0
 17 18  1  0  0  0
 18 19  1  0  0  0
 18 20  2  0  0  0
 11 12  1  0  0  0
 12 13  1  0  0  0
 13 14  1  0  0  0
 13 15  2  0  0  0
  6  2  1  0  0  0
  2  3  2  0  0  0
  2  4  1  0  0  0
  4  1  1  0  0  0
  1 43  1  0  0  0
 43 44  1  0  0  0
 44 45  1  0  0  0
 44 46  2  0  0  0
  1 25  1  0  0  0
 25 26  2  0  0  0
 25 27  1  0  0  0
 27 29  1  0  0  0
 29 38  1  0  0  0
 38 39  1  0  0  0
 39 40  1  0  0  0
 39 41  2  0  0  0
 29 30  1  0  0  0
 30 31  2  0  0  0
 31 32  1  0  0  0
 32 33  2  0  0  0
 33 34  1  0  0  0
 34 35  2  0  0  0
 35 36  1  0  0  0
 36 37  2  0  0  0
 37 32  1  0  0  0
  7 10  1  0  0  0
 19 21  1  0  0  0
 12 16  1  0  0  0
  4  5  1  0  0  0
 45 47  1  0  0  0
 27 28  1  0  0  0
 40 42  1  0  0  0
M  END
> <minimizedAffinity>
-7.15720

> <CNNscore>
0.0287534446

> <CNNaffinity>
5.1184663773

> <CNN_VS>
0.1471735388

> <CNNaffinity_variance>
0.3278057575

$$$$
[H]OC(=O)C([H])([H])[C@@]([H])(C(=O)N([H])[C@]([H])(C([H])=C([H])c1c([H])c([H])c([H])c([H])c1[H])C([H])([H])C(=O)O[H])N([H])C(=O)[C@@]([H])(N([H])C(=O)[C@@]([H])(N([H])C(=O)C([H])([H])[H])C([H])([H])C(=O)O[H])C([H])(C([H])([H])[H])C([H])([H])[H]


 47 47  0  0  0  0  0  0  0  0999 V2000
  -90.5733   29.7177   -3.3510 C   0  0  0  0  0  0  0  0  0  0  0  0
  -90.9092   27.2209   -3.0268 C   0  0  0  0  0  0  0  0  0  0  0  0
  -91.4631   27.1541   -4.1586 O   0  0  0  0  0  0  0  0  0  0  0  0
  -90.4596   28.5006   -2.6030 N   0  0  0  0  0  0  0  0  0  0  0  0
  -90.0117   28.5308   -1.6454 H   0  0  0  0  0  0  0  0  0  0  0  0
  -90.7908   25.9732   -2.2607 C   0  0  0  0  0  0  0  0  0  0  0  0
  -90.1337   26.1101   -1.0107 N   0  0  0  0  0  0  0  0  0  0  0  0
  -88.8216   26.2291   -0.5940 C   0  0  0  0  0  0  0  0  0  0  0  0
  -87.8408   26.2126   -1.3452 O   0  0  0  0  0  0  0  0  0  0  0  0
  -90.8322   26.1318   -0.1372 H   0  0  0  0  0  0  0  0  0  0  0  0
  -88.4563   26.3976    0.8705 C   0  0  0  0  0  0  0  0  0  0  0  0
  -89.2709   25.5808    1.7268 N   0  0  0  0  0  0  0  0  0  0  0  0
  -89.7808   26.0191    2.9796 C   0  0  0  0  0  0  0  0  0  0  0  0
  -90.6107   25.1599    3.8305 C   0  0  0  0  0  0  0  0  0  0  0  0
  -89.4850   27.1996    3.3372 O   0  0  0  0  0  0  0  0  0  0  0  0
  -89.5121   24.6113    1.4282 H   0  0  0  0  0  0  0  0  0  0  0  0
  -86.9727   26.1731    1.0535 C   0  0  0  0  0  0  0  0  0  0  0  0
  -86.3223   27.2405    1.8391 C   0  0  0  0  0  0  0  0  0  0  0  0
  -87.0344   28.3475    2.2515 O   0  0  0  0  0  0  0  0  0  0  0  0
  -85.1153   27.1435    2.1345 O   0  0  0  0  0  0  0  0  0  0  0  0
  -87.0515   29.2227    1.7403 H   0  0  0  0  0  0  0  0  0  0  0  0
  -92.7554   25.1847   -0.9964 C   0  0  0  0  0  0  0  0  0  0  0  0
  -91.9592   25.0519   -2.2910 C   0  0  0  0  0  0  0  0  0  0  0  0
  -91.6864   23.6093   -2.5089 C   0  0  0  0  0  0  0  0  0  0  0  0
  -89.3440   30.5207   -3.4077 C   0  0  0  0  0  0  0  0  0  0  0  0
  -88.4643   30.2315   -4.2499 O   0  0  0  0  0  0  0  0  0  0  0  0
  -89.1016   31.6165   -2.5477 N   0  0  0  0  0  0  0  0  0  0  0  0
  -89.8232   31.8628   -1.8458 H   0  0  0  0  0  0  0  0  0  0  0  0
  -87.8998   32.4140   -2.5945 C   0  0  0  0  0  0  0  0  0  0  0  0
  -86.8109   31.7422   -1.7863 C   0  0  0  0  0  0  0  0  0  0  0  0
  -86.1445   32.4663   -0.9320 C   0  0  0  0  0  0  0  0  0  0  0  0
  -85.0693   31.9525   -0.0887 C   0  0  0  0  0  0  0  0  0  0  0  0
  -85.3508   31.1648    1.0298 C   0  0  0  0  0  0  0  0  0  0  0  0
  -84.3846   30.6649    1.8487 C   0  0  0  0  0  0  0  0  0  0  0  0
  -83.0622   30.9455    1.5670 C   0  0  0  0  0  0  0  0  0  0  0  0
  -82.7403   31.7092    0.4880 C   0  0  0  0  0  0  0  0  0  0  0  0
  -83.7383   32.1987   -0.3192 C   0  0  0  0  0  0  0  0  0  0  0  0
  -88.1277   33.7540   -1.9649 C   0  0  0  0  0  0  0  0  0  0  0  0
  -88.9371   34.5915   -2.8601 C   0  0  0  0  0  0  0  0  0  0  0  0
  -90.1682   34.2031   -3.3251 O   0  0  0  0  0  0  0  0  0  0  0  0
  -88.5141   35.7248   -3.2390 O   0  0  0  0  0  0  0  0  0  0  0  0
  -90.8679   34.7759   -3.7354 H   0  0  0  0  0  0  0  0  0  0  0  0
  -91.7823   30.5350   -2.9508 C   0  0  0  0  0  0  0  0  0  0  0  0
  -92.4553   31.2356   -4.0210 C   0  0  0  0  0  0  0  0  0  0  0  0
  -92.0989   31.1695   -5.3588 O   0  0  0  0  0  0  0  0  0  0  0  0
  -93.4470   31.9763   -3.7734 O   0  0  0  0  0  0  0  0  0  0  0  0
  -91.2554   30.6880   -5.6399 H   0  0  0  0  0  0  0  0  0  0  0  0
 22 23  1  0  0  0
 23 24  1  0  0  0
 23  6  1  0  0  0
  6  7  1  0  0  0
  7  8  1  0  0  0
  8  9  2  0  0  0
  8 11  1  0  0  0
 11 17  1  0  0  0
 17 18  1  0  0  0
 18 19  1  0  0  0
 18 20  2  0  0  0
 11 12  1  0  0  0
 12 13  1  0  0  0
 13 14  1  0  0  0
 13 15  2  0  0  0
  6  2  1  0  0  0
  2  3  2  0  0  0
  2  4  1  0  0  0
  4  1  1  0  0  0
  1 43  1  0  0  0
 43 44  1  0  0  0
 44 45  1  0  0  0
 44 46  2  0  0  0
  1 25  1  0  0  0
 25 26  2  0  0  0
 25 27  1  0  0  0
 27 29  1  0  0  0
 29 38  1  0  0  0
 38 39  1  0  0  0
 39 40  1  0  0  0
 39 41  2  0  0  0
 29 30  1  0  0  0
 30 31  2  0  0  0
 31 32  1  0  0  0
 32 33  2  0  0  0
 33 34  1  0  0  0
 34 35  2  0  0  0
 35 36  1  0  0  0
 36 37  2  0  0  0
 37 32  1  0  0  0
  7 10  1  0  0  0
 19 21  1  0  0  0
 12 16  1  0  0  0
  4  5  1  0  0  0
 45 47  1  0  0  0
 27 28  1  0  0  0
 40 42  1  0  0  0
M  END
> <minimizedAffinity>
-7.60254

> <CNNscore>
0.0272176806

> <CNNaffinity>
5.6311612129

> <CNN_VS>
0.1532671452

> <CNNaffinity_variance>
0.4523392320

$$$$
[H]Oc1c([H])c([H])c(C([H])([H])[C@@]([H])(C(=O)N([H])[C@]([H])(C(=O)N([H])[C@@]([H])(C([H])([H])C([H])(C([H])([H])[H])C([H])([H])[H])C([H])(C([H])([H])[H])C([H])([H])[H])C(C([H])([H])[H])(C([H])([H])[H])C([H])([H])[H])N([H])C(=O)[C@@]2([H])N(C(=O)[C@]([H])(C(=O)OC(C([H])([H])[H])(C([H])([H])[H])C([H])([H])[H])C([H])([H])C([H])([H])C([H])([H])N=C(N([H])[H])N([H])[H])C([H])([H])C([H])([H])C2([H])[H])c([H])c1[H]


 61 62  0  0  0  0  0  0  0  0999 V2000
  -90.6632   31.3239   -1.6791 C   0  0  0  0  0  0  0  0  0  0  0  0
  -91.7246   32.5592   -3.7458 N   0  0  0  0  0  0  0  0  0  0  0  0
  -90.8570   31.7356   -3.0760 C   0  0  0  0  0  0  0  0  0  0  0  0
  -89.9708   31.1703   -3.9123 O   0  0  0  0  0  0  0  0  0  0  0  0
  -92.4551   33.1262   -3.2998 H   0  0  0  0  0  0  0  0  0  0  0  0
  -91.6712   32.7243   -5.2063 C   0  0  0  0  0  0  0  0  0  0  0  0
  -93.0020   32.3242   -5.7115 C   0  0  0  0  0  0  0  0  0  0  0  0
  -93.3354   32.7318   -7.1166 C   0  0  0  0  0  0  0  0  0  0  0  0
  -94.1281   32.6993   -4.7414 C   0  0  0  0  0  0  0  0  0  0  0  0
  -93.0133   30.7832   -5.7172 C   0  0  0  0  0  0  0  0  0  0  0  0
  -90.1474   34.3370   -6.4654 N   0  0  0  0  0  0  0  0  0  0  0  0
  -91.1672   34.0427   -5.5182 C   0  0  0  0  0  0  0  0  0  0  0  0
  -91.6459   35.0448   -4.9142 O   0  0  0  0  0  0  0  0  0  0  0  0
  -89.7327   33.5359   -6.9741 H   0  0  0  0  0  0  0  0  0  0  0  0
  -89.6580   35.6905   -6.7433 C   0  0  0  0  0  0  0  0  0  0  0  0
  -90.0682   36.0644   -8.0916 C   0  0  0  0  0  0  0  0  0  0  0  0
  -90.2191   37.5089   -8.4496 C   0  0  0  0  0  0  0  0  0  0  0  0
  -91.2718   35.3388   -8.6425 C   0  0  0  0  0  0  0  0  0  0  0  0
  -88.3677   35.9726   -6.1496 C   0  0  0  0  0  0  0  0  0  0  0  0
  -89.0318   36.6999   -3.8369 C   0  0  0  0  0  0  0  0  0  0  0  0
  -88.0947   36.8351   -5.0109 C   0  0  0  0  0  0  0  0  0  0  0  0
  -86.6637   37.0882   -4.6224 C   0  0  0  0  0  0  0  0  0  0  0  0
  -90.8532   29.9599   -1.4072 N   0  0  0  0  0  0  0  0  0  0  0  0
  -91.0364   28.6512   -1.1458 C   0  0  0  0  0  0  0  0  0  0  0  0
  -91.8478   28.0326   -0.3808 O   0  0  0  0  0  0  0  0  0  0  0  0
  -91.8502   30.2723   -0.5498 H   0  0  0  0  0  0  0  0  0  0  0  0
  -90.1140   27.6659   -1.8596 C   0  0  0  0  0  0  0  0  0  0  0  0
  -90.9143   26.5100   -2.3710 C   0  0  0  0  0  0  0  0  0  0  0  0
  -89.9897   25.3272   -2.2461 C   0  0  0  0  0  0  0  0  0  0  0  0
  -88.7910   25.7999   -1.4775 C   0  0  0  0  0  0  0  0  0  0  0  0
  -89.1870   27.0648   -0.9169 N   0  0  0  0  0  0  0  0  0  0  0  0
  -88.7414   27.6964    0.2698 C   0  0  0  0  0  0  0  0  0  0  0  0
  -89.0977   28.8546    0.5375 O   0  0  0  0  0  0  0  0  0  0  0  0
  -87.8154   27.0211    1.2883 C   0  0  0  0  0  0  0  0  0  0  0  0
  -88.6668   26.3885    2.3169 C   0  0  0  0  0  0  0  0  0  0  0  0
  -89.2175   25.2780    2.0366 O   0  0  0  0  0  0  0  0  0  0  0  0
  -88.9369   26.8747    3.5726 O   0  0  0  0  0  0  0  0  0  0  0  0
  -90.1449   27.2527    4.1169 C   0  0  0  0  0  0  0  0  0  0  0  0
  -90.9895   28.1991    3.3253 C   0  0  0  0  0  0  0  0  0  0  0  0
  -89.8190   27.9978    5.4289 C   0  0  0  0  0  0  0  0  0  0  0  0
  -91.0050   26.0783    4.5360 C   0  0  0  0  0  0  0  0  0  0  0  0
  -87.0194   28.1459    1.8654 C   0  0  0  0  0  0  0  0  0  0  0  0
  -85.5978   28.0639    2.1333 C   0  0  0  0  0  0  0  0  0  0  0  0
  -84.9314   29.1136    2.9459 C   0  0  0  0  0  0  0  0  0  0  0  0
  -84.4820   30.1840    2.0044 N   0  0  0  0  0  0  0  0  0  0  0  0
  -83.2631   30.1257    1.6068 C   0  0  0  0  0  0  0  0  0  0  0  0
  -82.4077   29.0883    2.0518 N   0  0  0  0  0  0  0  0  0  0  0  0
  -82.7990   31.1431    0.7117 N   0  0  0  0  0  0  0  0  0  0  0  0
  -81.8696   29.1988    2.9231 H   0  0  0  0  0  0  0  0  0  0  0  0
  -82.3259   28.2247    1.4966 H   0  0  0  0  0  0  0  0  0  0  0  0
  -83.2356   31.2283   -0.2076 H   0  0  0  0  0  0  0  0  0  0  0  0
  -82.0347   31.7591    1.0291 H   0  0  0  0  0  0  0  0  0  0  0  0
  -89.7154   32.0429   -0.8734 C   0  0  0  0  0  0  0  0  0  0  0  0
  -88.3856   32.4532   -1.1253 C   0  0  0  0  0  0  0  0  0  0  0  0
  -87.3291   31.8092   -0.4889 C   0  0  0  0  0  0  0  0  0  0  0  0
  -86.0240   32.1323   -0.6596 C   0  0  0  0  0  0  0  0  0  0  0  0
  -85.7017   33.1603   -1.5127 C   0  0  0  0  0  0  0  0  0  0  0  0
  -84.3861   33.5264   -1.7197 O   0  0  0  0  0  0  0  0  0  0  0  0
  -86.6992   33.8406   -2.1741 C   0  0  0  0  0  0  0  0  0  0  0  0
  -88.0009   33.4870   -1.9770 C   0  0  0  0  0  0  0  0  0  0  0  0
  -83.8165   33.1174   -2.4469 H   0  0  0  0  0  0  0  0  0  0  0  0
 20 21  1  0  0  0
 21 22  1  0  0  0
 21 19  1  0  0  0
 19 15  1  0  0  0
 15 11  1  0  0  0
 11 12  1  0  0  0
 12 13  2  0  0  0
 12  6  1  0  0  0
  6  2  1  0  0  0
  2  3  1  0  0  0
  3  4  2  0  0  0
  3  1  1  0  0  0
  1 53  1  0  0  0
 53 54  1  0  0  0
 54 55  2  0  0  0
 55 56  1  0  0  0
 56 57  2  0  0  0
 57 58  1  0  0  0
 57 59  1  0  0  0
 59 60  2  0  0  0
  1 23  1  0  0  0
 23 24  1  0  0  0
 24 25  2  0  0  0
 24 27  1  0  0  0
 27 28  1  0  0  0
 28 29  1  0  0  0
 29 30  1  0  0  0
 30 31  1  0  0  0
 31 32  1  0  0  0
 32 33  2  0  0  0
 32 34  1  0  0  0
 34 42  1  0  0  0
 42 43  1  0  0  0
 43 44  1  0  0  0
 44 45  1  0  0  0
 45 46  2  0  0  0
 46 47  1  0  0  0
 46 48  1  0  0  0
 34 35  1  0  0  0
 35 36  2  0  0  0
 35 37  1  0  0  0
 37 38  1  0  0  0
 38 39  1  0  0  0
 38 40  1  0  0  0
 38 41  1  0  0  0
  6  7  1  0  0  0
  7  8  1  0  0  0
  7  9  1  0  0  0
  7 10  1  0  0  0
 15 16  1  0  0  0
 16 17  1  0  0  0
 16 18  1  0  0  0
 60 54  1  0  0  0
 31 27  1  0  0  0
 11 14  1  0  0  0
  2  5  1  0  0  0
 58 61  1  0  0  0
 23 26  1  0  0  0
 47 49  1  0  0  0
 47 50  1  0  0  0
 48 51  1  0  0  0
 48 52  1  0  0  0
M  END
> <minimizedAffinity>
-8.14631

> <CNNscore>
0.2542877197

> <CNNaffinity>
7.8294625282

> <CNN_VS>
1.9909361601

> <CNNaffinity_variance>
0.1096105129

$$$$
[H]Oc1c([H])c([H])c(C([H])([H])[C@@]([H])(C(=O)N([H])[C@]([H])(C(=O)N([H])[C@@]([H])(C([H])([H])C([H])(C([H])([H])[H])C([H])([H])[H])C([H])(C([H])([H])[H])C([H])([H])[H])C(C([H])([H])[H])(C([H])([H])[H])C([H])([H])[H])N([H])C(=O)[C@@]2([H])N(C(=O)[C@]([H])(C(=O)OC(C([H])([H])[H])(C([H])([H])[H])C([H])([H])[H])C([H])([H])C([H])([H])C([H])([H])N=C(N([H])[H])N([H])[H])C([H])([H])C([H])([H])C2([H])[H])c([H])c1[H]


 61 62  0  0  0  0  0  0  0  0999 V2000
  -90.7516   31.1290   -2.0787 C   0  0  0  0  0  0  0  0  0  0  0  0
  -92.3611   31.8400   -4.0351 N   0  0  0  0  0  0  0  0  0  0  0  0
  -91.2447   31.2983   -3.4521 C   0  0  0  0  0  0  0  0  0  0  0  0
  -90.4010   30.8021   -4.3722 O   0  0  0  0  0  0  0  0  0  0  0  0
  -93.1160   32.3135   -3.5252 H   0  0  0  0  0  0  0  0  0  0  0  0
  -92.5734   31.8080   -5.4901 C   0  0  0  0  0  0  0  0  0  0  0  0
  -93.8627   31.1151   -5.6997 C   0  0  0  0  0  0  0  0  0  0  0  0
  -94.5974   31.4362   -6.9680 C   0  0  0  0  0  0  0  0  0  0  0  0
  -94.7848   31.2232   -4.4799 C   0  0  0  0  0  0  0  0  0  0  0  0
  -93.5330   29.6121   -5.7852 C   0  0  0  0  0  0  0  0  0  0  0  0
  -91.5344   33.4876   -7.1051 N   0  0  0  0  0  0  0  0  0  0  0  0
  -92.3940   33.1383   -6.0267 C   0  0  0  0  0  0  0  0  0  0  0  0
  -93.0356   34.1007   -5.5166 O   0  0  0  0  0  0  0  0  0  0  0  0
  -90.9923   32.7207   -7.5416 H   0  0  0  0  0  0  0  0  0  0  0  0
  -91.3745   34.8538   -7.6113 C   0  0  0  0  0  0  0  0  0  0  0  0
  -91.8453   34.8956   -8.9906 C   0  0  0  0  0  0  0  0  0  0  0  0
  -93.2978   34.6959   -9.2873 C   0  0  0  0  0  0  0  0  0  0  0  0
  -91.0677   34.0631   -9.9811 C   0  0  0  0  0  0  0  0  0  0  0  0
  -90.1942   35.5237   -7.1064 C   0  0  0  0  0  0  0  0  0  0  0  0
  -90.3948   37.9524   -7.7225 C   0  0  0  0  0  0  0  0  0  0  0  0
  -89.5502   36.7044   -7.6597 C   0  0  0  0  0  0  0  0  0  0  0  0
  -88.1058   36.9623   -7.3285 C   0  0  0  0  0  0  0  0  0  0  0  0
  -90.8455   29.8335   -1.5460 N   0  0  0  0  0  0  0  0  0  0  0  0
  -90.9362   28.5908   -1.0342 C   0  0  0  0  0  0  0  0  0  0  0  0
  -91.4714   28.1363    0.0302 O   0  0  0  0  0  0  0  0  0  0  0  0
  -91.5312   30.3209   -0.4882 H   0  0  0  0  0  0  0  0  0  0  0  0
  -90.2756   27.4650   -1.8263 C   0  0  0  0  0  0  0  0  0  0  0  0
  -91.1525   26.2531   -1.8019 C   0  0  0  0  0  0  0  0  0  0  0  0
  -90.1914   25.0931   -1.7871 C   0  0  0  0  0  0  0  0  0  0  0  0
  -88.8226   25.6735   -1.5858 C   0  0  0  0  0  0  0  0  0  0  0  0
  -89.0548   27.0315   -1.1697 N   0  0  0  0  0  0  0  0  0  0  0  0
  -88.2543   27.8662   -0.3523 C   0  0  0  0  0  0  0  0  0  0  0  0
  -88.5459   29.0628   -0.1992 O   0  0  0  0  0  0  0  0  0  0  0  0
  -87.0050   27.3744    0.3881 C   0  0  0  0  0  0  0  0  0  0  0  0
  -87.4553   26.5320    1.5154 C   0  0  0  0  0  0  0  0  0  0  0  0
  -86.6466   26.3369    2.4760 O   0  0  0  0  0  0  0  0  0  0  0  0
  -88.6784   25.9214    1.6474 O   0  0  0  0  0  0  0  0  0  0  0  0
  -89.5954   26.0250    2.6705 C   0  0  0  0  0  0  0  0  0  0  0  0
  -89.3149   25.2614    3.9251 C   0  0  0  0  0  0  0  0  0  0  0  0
  -90.9205   25.4467    2.1298 C   0  0  0  0  0  0  0  0  0  0  0  0
  -89.9158   27.4578    3.0429 C   0  0  0  0  0  0  0  0  0  0  0  0
  -86.3507   28.6248    0.8782 C   0  0  0  0  0  0  0  0  0  0  0  0
  -85.4515   29.4252    0.0717 C   0  0  0  0  0  0  0  0  0  0  0  0
  -85.5316   30.9077    0.1158 C   0  0  0  0  0  0  0  0  0  0  0  0
  -84.1610   31.4339   -0.1648 N   0  0  0  0  0  0  0  0  0  0  0  0
  -83.4645   31.7950    0.8509 C   0  0  0  0  0  0  0  0  0  0  0  0
  -83.9908   31.6890    2.1615 N   0  0  0  0  0  0  0  0  0  0  0  0
  -82.1502   32.3131    0.6143 N   0  0  0  0  0  0  0  0  0  0  0  0
  -84.5412   32.4618    2.5624 H   0  0  0  0  0  0  0  0  0  0  0  0
  -83.8169   30.8353    2.7108 H   0  0  0  0  0  0  0  0  0  0  0  0
  -81.4512   31.7072    0.1815 H   0  0  0  0  0  0  0  0  0  0  0  0
  -81.9540   33.2875    0.8910 H   0  0  0  0  0  0  0  0  0  0  0  0
  -89.6746   31.9645   -1.6247 C   0  0  0  0  0  0  0  0  0  0  0  0
  -88.9076   32.9529   -2.2844 C   0  0  0  0  0  0  0  0  0  0  0  0
  -87.5275   32.8076   -2.3837 C   0  0  0  0  0  0  0  0  0  0  0  0
  -86.7075   33.7006   -2.9895 C   0  0  0  0  0  0  0  0  0  0  0  0
  -87.2551   34.8302   -3.5485 C   0  0  0  0  0  0  0  0  0  0  0  0
  -86.4607   35.7692   -4.1769 O   0  0  0  0  0  0  0  0  0  0  0  0
  -88.6147   35.0366   -3.4848 C   0  0  0  0  0  0  0  0  0  0  0  0
  -89.4077   34.1159   -2.8669 C   0  0  0  0  0  0  0  0  0  0  0  0
  -86.2447   35.7255   -5.1629 H   0  0  0  0  0  0  0  0  0  0  0  0
 20 21  1  0  0  0
 21 22  1  0  0  0
 21 19  1  0  0  0
 19 15  1  0  0  0
 15 11  1  0  0  0
 11 12  1  0  0  0
 12 13  2  0  0  0
 12  6  1  0  0  0
  6  2  1  0  0  0
  2  3  1  0  0  0
  3  4  2  0  0  0
  3  1  1  0  0  0
  1 53  1  0  0  0
 53 54  1  0  0  0
 54 55  2  0  0  0
 55 56  1  0  0  0
 56 57  2  0  0  0
 57 58  1  0  0  0
 57 59  1  0  0  0
 59 60  2  0  0  0
  1 23  1  0  0  0
 23 24  1  0  0  0
 24 25  2  0  0  0
 24 27  1  0  0  0
 27 28  1  0  0  0
 28 29  1  0  0  0
 29 30  1  0  0  0
 30 31  1  0  0  0
 31 32  1  0  0  0
 32 33  2  0  0  0
 32 34  1  0  0  0
 34 42  1  0  0  0
 42 43  1  0  0  0
 43 44  1  0  0  0
 44 45  1  0  0  0
 45 46  2  0  0  0
 46 47  1  0  0  0
 46 48  1  0  0  0
 34 35  1  0  0  0
 35 36  2  0  0  0
 35 37  1  0  0  0
 37 38  1  0  0  0
 38 39  1  0  0  0
 38 40  1  0  0  0
 38 41  1  0  0  0
  6  7  1  0  0  0
  7  8  1  0  0  0
  7  9  1  0  0  0
  7 10  1  0  0  0
 15 16  1  0  0  0
 16 17  1  0  0  0
 16 18  1  0  0  0
 60 54  1  0  0  0
 31 27  1  0  0  0
 11 14  1  0  0  0
  2  5  1  0  0  0
 58 61  1  0  0  0
 23 26  1  0  0  0
 47 49  1  0  0  0
 47 50  1  0  0  0
 48 51  1  0  0  0
 48 52  1  0  0  0
M  END
> <minimizedAffinity>
-7.66289

> <CNNscore>
0.1921238303

> <CNNaffinity>
7.8003144264

> <CNN_VS>
1.4986262321

> <CNNaffinity_variance>
0.2959041893

$$$$
[H]Oc1c([H])c([H])c(C([H])([H])[C@@]([H])(C(=O)N([H])[C@]([H])(C(=O)N([H])[C@@]([H])(C([H])([H])C([H])(C([H])([H])[H])C([H])([H])[H])C([H])(C([H])([H])[H])C([H])([H])[H])C(C([H])([H])[H])(C([H])([H])[H])C([H])([H])[H])N([H])C(=O)[C@@]2([H])N(C(=O)[C@]([H])(C(=O)OC(C([H])([H])[H])(C([H])([H])[H])C([H])([H])[H])C([H])([H])C([H])([H])C([H])([H])N=C(N([H])[H])N([H])[H])C([H])([H])C([H])([H])C2([H])[H])c([H])c1[H]


 61 62  0  0  0  0  0  0  0  0999 V2000
  -90.2049   30.6665   -2.3747 C   0  0  0  0  0  0  0  0  0  0  0  0
  -88.9817   28.8915   -0.8658 N   0  0  0  0  0  0  0  0  0  0  0  0
  -89.5282   30.1041   -1.1982 C   0  0  0  0  0  0  0  0  0  0  0  0
  -89.4118   30.9880   -0.1934 O   0  0  0  0  0  0  0  0  0  0  0  0
  -88.9205   28.0845   -1.4976 H   0  0  0  0  0  0  0  0  0  0  0  0
  -88.3981   28.6373    0.4600 C   0  0  0  0  0  0  0  0  0  0  0  0
  -88.8462   27.2835    0.8509 C   0  0  0  0  0  0  0  0  0  0  0  0
  -88.0586   26.1318    0.2988 C   0  0  0  0  0  0  0  0  0  0  0  0
  -90.3504   27.0843    0.6326 C   0  0  0  0  0  0  0  0  0  0  0  0
  -88.6777   27.2007    2.3805 C   0  0  0  0  0  0  0  0  0  0  0  0
  -86.1988   29.3830    1.5161 N   0  0  0  0  0  0  0  0  0  0  0  0
  -86.9822   28.9258    0.4201 C   0  0  0  0  0  0  0  0  0  0  0  0
  -86.3525   28.7755   -0.6656 O   0  0  0  0  0  0  0  0  0  0  0  0
  -86.6875   29.5194    2.4189 H   0  0  0  0  0  0  0  0  0  0  0  0
  -84.7649   29.6741    1.4286 C   0  0  0  0  0  0  0  0  0  0  0  0
  -84.0492   28.7458    2.2958 C   0  0  0  0  0  0  0  0  0  0  0  0
  -82.5577   28.6584    2.2223 C   0  0  0  0  0  0  0  0  0  0  0  0
  -84.5789   27.3327    2.3333 C   0  0  0  0  0  0  0  0  0  0  0  0
  -84.4684   31.0838    1.2814 C   0  0  0  0  0  0  0  0  0  0  0  0
  -84.2593   32.9181   -0.4246 C   0  0  0  0  0  0  0  0  0  0  0  0
  -83.6596   31.7077    0.2462 C   0  0  0  0  0  0  0  0  0  0  0  0
  -82.1715   31.7971    0.4472 C   0  0  0  0  0  0  0  0  0  0  0  0
  -89.3713   31.0727   -3.4288 N   0  0  0  0  0  0  0  0  0  0  0  0
  -88.5719   31.4617   -4.4408 C   0  0  0  0  0  0  0  0  0  0  0  0
  -88.4192   31.0295   -5.6307 O   0  0  0  0  0  0  0  0  0  0  0  0
  -89.8858   30.0961   -4.2086 H   0  0  0  0  0  0  0  0  0  0  0  0
  -87.6295   32.6320   -4.1692 C   0  0  0  0  0  0  0  0  0  0  0  0
  -87.2934   32.6775   -2.7121 C   0  0  0  0  0  0  0  0  0  0  0  0
  -87.1586   34.1457   -2.4025 C   0  0  0  0  0  0  0  0  0  0  0  0
  -87.6292   34.8852   -3.6203 C   0  0  0  0  0  0  0  0  0  0  0  0
  -88.3041   33.8942   -4.4162 N   0  0  0  0  0  0  0  0  0  0  0  0
  -89.3659   34.0590   -5.3388 C   0  0  0  0  0  0  0  0  0  0  0  0
  -89.7441   33.1065   -6.0388 O   0  0  0  0  0  0  0  0  0  0  0  0
  -90.1122   35.3834   -5.5384 C   0  0  0  0  0  0  0  0  0  0  0  0
  -91.5589   35.0837   -5.5576 C   0  0  0  0  0  0  0  0  0  0  0  0
  -92.1089   34.7229   -4.4703 O   0  0  0  0  0  0  0  0  0  0  0  0
  -92.3981   35.1531   -6.6425 O   0  0  0  0  0  0  0  0  0  0  0  0
  -92.9509   34.1294   -7.3805 C   0  0  0  0  0  0  0  0  0  0  0  0
  -93.0480   32.7870   -6.7292 C   0  0  0  0  0  0  0  0  0  0  0  0
  -92.0291   33.9236   -8.6014 C   0  0  0  0  0  0  0  0  0  0  0  0
  -94.3042   34.4775   -7.9651 C   0  0  0  0  0  0  0  0  0  0  0  0
  -89.6458   35.8721   -6.8709 C   0  0  0  0  0  0  0  0  0  0  0  0
  -88.3860   36.5584   -7.0743 C   0  0  0  0  0  0  0  0  0  0  0  0
  -87.9599   37.6269   -6.1347 C   0  0  0  0  0  0  0  0  0  0  0  0
  -86.8306   38.3617   -6.7820 N   0  0  0  0  0  0  0  0  0  0  0  0
  -85.7087   38.3564   -6.1588 C   0  0  0  0  0  0  0  0  0  0  0  0
  -85.5735   37.6800   -4.9218 N   0  0  0  0  0  0  0  0  0  0  0  0
  -84.6093   39.0602   -6.7484 N   0  0  0  0  0  0  0  0  0  0  0  0
  -85.7912   38.1652   -4.0398 H   0  0  0  0  0  0  0  0  0  0  0  0
  -85.2536   36.7010   -4.9109 H   0  0  0  0  0  0  0  0  0  0  0  0
  -84.2586   38.7551   -7.6577 H   0  0  0  0  0  0  0  0  0  0  0  0
  -84.2074   39.8569   -6.2305 H   0  0  0  0  0  0  0  0  0  0  0  0
  -91.5215   30.1951   -2.7041 C   0  0  0  0  0  0  0  0  0  0  0  0
  -91.9697   29.2265   -3.6320 C   0  0  0  0  0  0  0  0  0  0  0  0
  -92.4233   29.6251   -4.8855 C   0  0  0  0  0  0  0  0  0  0  0  0
  -92.8773   28.7755   -5.8388 C   0  0  0  0  0  0  0  0  0  0  0  0
  -92.8994   27.4281   -5.5697 C   0  0  0  0  0  0  0  0  0  0  0  0
  -93.3529   26.5227   -6.5091 O   0  0  0  0  0  0  0  0  0  0  0  0
  -92.4652   26.9657   -4.3477 C   0  0  0  0  0  0  0  0  0  0  0  0
  -92.0155   27.8510   -3.4136 C   0  0  0  0  0  0  0  0  0  0  0  0
  -92.7412   26.0924   -7.1883 H   0  0  0  0  0  0  0  0  0  0  0  0
 20 21  1  0  0  0
 21 22  1  0  0  0
 21 19  1  0  0  0
 19 15  1  0  0  0
 15 11  1  0  0  0
 11 12  1  0  0  0
 12 13  2  0  0  0
 12  6  1  0  0  0
  6  2  1  0  0  0
  2  3  1  0  0  0
  3  4  2  0  0  0
  3  1  1  0  0  0
  1 53  1  0  0  0
 53 54  1  0  0  0
 54 55  2  0  0  0
 55 56  1  0  0  0
 56 57  2  0  0  0
 57 58  1  0  0  0
 57 59  1  0  0  0
 59 60  2  0  0  0
  1 23  1  0  0  0
 23 24  1  0  0  0
 24 25  2  0  0  0
 24 27  1  0  0  0
 27 28  1  0  0  0
 28 29  1  0  0  0
 29 30  1  0  0  0
 30 31  1  0  0  0
 31 32  1  0  0  0
 32 33  2  0  0  0
 32 34  1  0  0  0
 34 42  1  0  0  0
 42 43  1  0  0  0
 43 44  1  0  0  0
 44 45  1  0  0  0
 45 46  2  0  0  0
 46 47  1  0  0  0
 46 48  1  0  0  0
 34 35  1  0  0  0
 35 36  2  0  0  0
 35 37  1  0  0  0
 37 38  1  0  0  0
 38 39  1  0  0  0
 38 40  1  0  0  0
 38 41  1  0  0  0
  6  7  1  0  0  0
  7  8  1  0  0  0
  7  9  1  0  0  0
  7 10  1  0  0  0
 15 16  1  0  0  0
 16 17  1  0  0  0
 16 18  1  0  0  0
 60 54  1  0  0  0
 31 27  1  0  0  0
 11 14  1  0  0  0
  2  5  1  0  0  0
 58 61  1  0  0  0
 23 26  1  0  0  0
 47 49  1  0  0  0
 47 50  1  0  0  0
 48 51  1  0  0  0
 48 52  1  0  0  0
M  END
> <minimizedAffinity>
-8.22811

> <CNNscore>
0.1121204048

> <CNNaffinity>
7.1730184555

> <CNN_VS>
0.8042417169

> <CNNaffinity_variance>
0.9595164061

$$$$
[H]Oc1c([H])c([H])c(C([H])([H])[C@@]([H])(C(=O)N([H])[C@]([H])(C(=O)N([H])[C@@]([H])(C([H])([H])C([H])(C([H])([H])[H])C([H])([H])[H])C([H])(C([H])([H])[H])C([H])([H])[H])C(C([H])([H])[H])(C([H])([H])[H])C([H])([H])[H])N([H])C(=O)[C@@]2([H])N(C(=O)[C@]([H])(C(=O)OC(C([H])([H])[H])(C([H])([H])[H])C([H])([H])[H])C([H])([H])C([H])([H])C([H])([H])N=C(N([H])[H])N([H])[H])C([H])([H])C([H])([H])C2([H])[H])c([H])c1[H]


 61 62  0  0  0  0  0  0  0  0999 V2000
  -87.7184   29.8334   -1.3520 C   0  0  0  0  0  0  0  0  0  0  0  0
  -89.0546   27.5673   -1.2973 N   0  0  0  0  0  0  0  0  0  0  0  0
  -88.7292   28.8502   -0.9398 C   0  0  0  0  0  0  0  0  0  0  0  0
  -89.5413   29.3129    0.0251 O   0  0  0  0  0  0  0  0  0  0  0  0
  -88.5399   27.0028   -1.9832 H   0  0  0  0  0  0  0  0  0  0  0  0
  -90.1932   26.8562   -0.6964 C   0  0  0  0  0  0  0  0  0  0  0  0
  -90.8520   26.1307   -1.8036 C   0  0  0  0  0  0  0  0  0  0  0  0
  -90.4596   24.6945   -1.9906 C   0  0  0  0  0  0  0  0  0  0  0  0
  -90.7831   26.9030   -3.1260 C   0  0  0  0  0  0  0  0  0  0  0  0
  -92.3553   26.1050   -1.4652 C   0  0  0  0  0  0  0  0  0  0  0  0
  -90.5312   25.7612    1.5829 N   0  0  0  0  0  0  0  0  0  0  0  0
  -89.7362   26.1148    0.4573 C   0  0  0  0  0  0  0  0  0  0  0  0
  -88.5315   25.7352    0.5090 O   0  0  0  0  0  0  0  0  0  0  0  0
  -91.5222   26.0617    1.5716 H   0  0  0  0  0  0  0  0  0  0  0  0
  -90.0234   25.0164    2.7387 C   0  0  0  0  0  0  0  0  0  0  0  0
  -90.9008   23.8767    2.9780 C   0  0  0  0  0  0  0  0  0  0  0  0
  -90.3578   22.6432    3.6271 C   0  0  0  0  0  0  0  0  0  0  0  0
  -91.7430   23.4322    1.8068 C   0  0  0  0  0  0  0  0  0  0  0  0
  -89.4458   25.8611    3.7633 C   0  0  0  0  0  0  0  0  0  0  0  0
  -89.7771   26.6871    6.1141 C   0  0  0  0  0  0  0  0  0  0  0  0
  -90.1518   26.7670    4.6554 C   0  0  0  0  0  0  0  0  0  0  0  0
  -90.4529   28.1618    4.1791 C   0  0  0  0  0  0  0  0  0  0  0  0
  -87.8491   30.3419   -2.6539 N   0  0  0  0  0  0  0  0  0  0  0  0
  -87.9743   30.8289   -3.9036 C   0  0  0  0  0  0  0  0  0  0  0  0
  -87.7668   30.3143   -5.0518 O   0  0  0  0  0  0  0  0  0  0  0  0
  -87.4373   29.1564   -3.1556 H   0  0  0  0  0  0  0  0  0  0  0  0
  -88.4343   32.2785   -4.0399 C   0  0  0  0  0  0  0  0  0  0  0  0
  -87.6561   33.1422   -3.0984 C   0  0  0  0  0  0  0  0  0  0  0  0
  -88.6338   34.2036   -2.6656 C   0  0  0  0  0  0  0  0  0  0  0  0
  -89.9758   33.7909   -3.1945 C   0  0  0  0  0  0  0  0  0  0  0  0
  -89.8093   32.4182   -3.5936 N   0  0  0  0  0  0  0  0  0  0  0  0
  -90.7696   31.3786   -3.6449 C   0  0  0  0  0  0  0  0  0  0  0  0
  -90.4791   30.2782   -4.1400 O   0  0  0  0  0  0  0  0  0  0  0  0
  -92.1983   31.5224   -3.1072 C   0  0  0  0  0  0  0  0  0  0  0  0
  -92.6715   30.1751   -2.7277 C   0  0  0  0  0  0  0  0  0  0  0  0
  -92.2269   29.6667   -1.6513 O   0  0  0  0  0  0  0  0  0  0  0  0
  -93.5598   29.3906   -3.4218 O   0  0  0  0  0  0  0  0  0  0  0  0
  -94.9245   29.2795   -3.2692 C   0  0  0  0  0  0  0  0  0  0  0  0
  -95.5632   30.0880   -2.1856 C   0  0  0  0  0  0  0  0  0  0  0  0
  -95.2043   27.8077   -2.8974 C   0  0  0  0  0  0  0  0  0  0  0  0
  -95.6905   29.5116   -4.5552 C   0  0  0  0  0  0  0  0  0  0  0  0
  -92.9753   32.0599   -4.2644 C   0  0  0  0  0  0  0  0  0  0  0  0
  -92.4580   32.1176   -5.6167 C   0  0  0  0  0  0  0  0  0  0  0  0
  -92.1879   33.4312   -6.2553 C   0  0  0  0  0  0  0  0  0  0  0  0
  -92.9758   34.4578   -5.5073 N   0  0  0  0  0  0  0  0  0  0  0  0
  -93.8096   35.1535   -6.1913 C   0  0  0  0  0  0  0  0  0  0  0  0
  -93.9576   34.9390   -7.5834 N   0  0  0  0  0  0  0  0  0  0  0  0
  -94.5728   36.1528   -5.5052 N   0  0  0  0  0  0  0  0  0  0  0  0
  -93.3547   35.4400   -8.2515 H   0  0  0  0  0  0  0  0  0  0  0  0
  -94.6736   34.2807   -7.9222 H   0  0  0  0  0  0  0  0  0  0  0  0
  -95.2154   35.8622   -4.7664 H   0  0  0  0  0  0  0  0  0  0  0  0
  -94.4457   37.1383   -5.7827 H   0  0  0  0  0  0  0  0  0  0  0  0
  -87.1404   30.6887   -0.3526 C   0  0  0  0  0  0  0  0  0  0  0  0
  -85.7976   31.0292   -0.0675 C   0  0  0  0  0  0  0  0  0  0  0  0
  -85.3227   32.2987   -0.3816 C   0  0  0  0  0  0  0  0  0  0  0  0
  -84.0539   32.7170   -0.1536 C   0  0  0  0  0  0  0  0  0  0  0  0
  -83.1625   31.8457    0.4247 C   0  0  0  0  0  0  0  0  0  0  0  0
  -81.8588   32.2257    0.6771 O   0  0  0  0  0  0  0  0  0  0  0  0
  -83.5669   30.5731    0.7599 C   0  0  0  0  0  0  0  0  0  0  0  0
  -84.8515   30.1881    0.5151 C   0  0  0  0  0  0  0  0  0  0  0  0
  -81.5764   32.6526    1.5482 H   0  0  0  0  0  0  0  0  0  0  0  0
 20 21  1  0  0  0
 21 22  1  0  0  0
 21 19  1  0  0  0
 19 15  1  0  0  0
 15 11  1  0  0  0
 11 12  1  0  0  0
 12 13  2  0  0  0
 12  6  1  0  0  0
  6  2  1  0  0  0
  2  3  1  0  0  0
  3  4  2  0  0  0
  3  1  1  0  0  0
  1 53  1  0  0  0
 53 54  1  0  0  0
 54 55  2  0  0  0
 55 56  1  0  0  0
 56 57  2  0  0  0
 57 58  1  0  0  0
 57 59  1  0  0  0
 59 60  2  0  0  0
  1 23  1  0  0  0
 23 24  1  0  0  0
 24 25  2  0  0  0
 24 27  1  0  0  0
 27 28  1  0  0  0
 28 29  1  0  0  0
 29 30  1  0  0  0
 30 31  1  0  0  0
 31 32  1  0  0  0
 32 33  2  0  0  0
 32 34  1  0  0  0
 34 42  1  0  0  0
 42 43  1  0  0  0
 43 44  1  0  0  0
 44 45  1  0  0  0
 45 46  2  0  0  0
 46 47  1  0  0  0
 46 48  1  0  0  0
 34 35  1  0  0  0
 35 36  2  0  0  0
 35 37  1  0  0  0
 37 38  1  0  0  0
 38 39  1  0  0  0
 38 40  1  0  0  0
 38 41  1  0  0  0
  6  7  1  0  0  0
  7  8  1  0  0  0
  7  9  1  0  0  0
  7 10  1  0  0  0
 15 16  1  0  0  0
 16 17  1  0  0  0
 16 18  1  0  0  0
 60 54  1  0  0  0
 31 27  1  0  0  0
 11 14  1  0  0  0
  2  5  1  0  0  0
 58 61  1  0  0  0
 23 26  1  0  0  0
 47 49  1  0  0  0
 47 50  1  0  0  0
 48 51  1  0  0  0
 48 52  1  0  0  0
M  END
> <minimizedAffinity>
-7.72509

> <CNNscore>
0.0934572369

> <CNNaffinity>
7.6392350197

> <CNN_VS>
0.7139418125

> <CNNaffinity_variance>
0.2866379321

$$$$
[H]Oc1c([H])c([H])c(C([H])([H])[C@@]([H])(C(=O)N([H])[C@]([H])(C(=O)N([H])[C@@]([H])(C([H])([H])C([H])(C([H])([H])[H])C([H])([H])[H])C([H])(C([H])([H])[H])C([H])([H])[H])C(C([H])([H])[H])(C([H])([H])[H])C([H])([H])[H])N([H])C(=O)[C@@]2([H])N(C(=O)[C@]([H])(C(=O)OC(C([H])([H])[H])(C([H])([H])[H])C([H])([H])[H])C([H])([H])C([H])([H])C([H])([H])N=C(N([H])[H])N([H])[H])C([H])([H])C([H])([H])C2([H])[H])c([H])c1[H]


 61 62  0  0  0  0  0  0  0  0999 V2000
  -91.1630   27.9603   -1.1107 C   0  0  0  0  0  0  0  0  0  0  0  0
  -88.6357   28.0707   -0.3867 N   0  0  0  0  0  0  0  0  0  0  0  0
  -89.9846   28.3004   -0.3020 C   0  0  0  0  0  0  0  0  0  0  0  0
  -90.2945   29.0117    0.7947 O   0  0  0  0  0  0  0  0  0  0  0  0
  -88.1726   27.5859   -1.1642 H   0  0  0  0  0  0  0  0  0  0  0  0
  -87.7006   28.5303    0.6513 C   0  0  0  0  0  0  0  0  0  0  0  0
  -87.1623   27.3083    1.2863 C   0  0  0  0  0  0  0  0  0  0  0  0
  -85.7735   27.4008    1.8468 C   0  0  0  0  0  0  0  0  0  0  0  0
  -87.3209   26.0722    0.3937 C   0  0  0  0  0  0  0  0  0  0  0  0
  -88.0739   27.0152    2.4938 C   0  0  0  0  0  0  0  0  0  0  0  0
  -86.2801   30.6482    0.7253 N   0  0  0  0  0  0  0  0  0  0  0  0
  -86.7826   29.4869    0.0751 C   0  0  0  0  0  0  0  0  0  0  0  0
  -86.3726   29.3128   -1.1080 O   0  0  0  0  0  0  0  0  0  0  0  0
  -86.6008   30.8201    1.6949 H   0  0  0  0  0  0  0  0  0  0  0  0
  -85.3572   31.5990    0.0987 C   0  0  0  0  0  0  0  0  0  0  0  0
  -84.1025   31.5858    0.8414 C   0  0  0  0  0  0  0  0  0  0  0  0
  -82.8040   31.4791    0.1064 C   0  0  0  0  0  0  0  0  0  0  0  0
  -84.0349   30.6324    2.0099 C   0  0  0  0  0  0  0  0  0  0  0  0
  -86.0106   32.7806   -0.4246 C   0  0  0  0  0  0  0  0  0  0  0  0
  -88.4271   32.7402   -1.1157 C   0  0  0  0  0  0  0  0  0  0  0  0
  -86.9752   32.8420   -1.5112 C   0  0  0  0  0  0  0  0  0  0  0  0
  -86.7194   33.7882   -2.6523 C   0  0  0  0  0  0  0  0  0  0  0  0
  -91.3484   28.7180   -2.2778 N   0  0  0  0  0  0  0  0  0  0  0  0
  -91.5252   29.4449   -3.3980 C   0  0  0  0  0  0  0  0  0  0  0  0
  -90.7327   29.7816   -4.3386 O   0  0  0  0  0  0  0  0  0  0  0  0
  -90.0489   28.5339   -2.6007 H   0  0  0  0  0  0  0  0  0  0  0  0
  -92.9191   30.0200   -3.6384 C   0  0  0  0  0  0  0  0  0  0  0  0
  -93.4273   30.6465   -2.3785 C   0  0  0  0  0  0  0  0  0  0  0  0
  -94.9120   30.3920   -2.4037 C   0  0  0  0  0  0  0  0  0  0  0  0
  -95.1666   29.4553   -3.5478 C   0  0  0  0  0  0  0  0  0  0  0  0
  -93.8673   28.9542   -3.9109 N   0  0  0  0  0  0  0  0  0  0  0  0
  -93.5189   27.7131   -4.4975 C   0  0  0  0  0  0  0  0  0  0  0  0
  -92.3533   27.4963   -4.8645 O   0  0  0  0  0  0  0  0  0  0  0  0
  -94.5201   26.5727   -4.7164 C   0  0  0  0  0  0  0  0  0  0  0  0
  -93.9832   25.3706   -4.0457 C   0  0  0  0  0  0  0  0  0  0  0  0
  -93.5602   24.4188   -4.7738 O   0  0  0  0  0  0  0  0  0  0  0  0
  -93.8855   25.1595   -2.6922 O   0  0  0  0  0  0  0  0  0  0  0  0
  -94.4385   24.1561   -1.9270 C   0  0  0  0  0  0  0  0  0  0  0  0
  -93.7095   22.8518   -1.8726 C   0  0  0  0  0  0  0  0  0  0  0  0
  -95.8091   23.8303   -2.5581 C   0  0  0  0  0  0  0  0  0  0  0  0
  -94.7523   24.5893   -0.5099 C   0  0  0  0  0  0  0  0  0  0  0  0
  -94.5547   26.3920   -6.1989 C   0  0  0  0  0  0  0  0  0  0  0  0
  -95.7760   26.1843   -6.9504 C   0  0  0  0  0  0  0  0  0  0  0  0
  -96.4729   24.8739   -6.8916 C   0  0  0  0  0  0  0  0  0  0  0  0
  -95.9211   24.0288   -7.9940 N   0  0  0  0  0  0  0  0  0  0  0  0
  -95.3344   22.9415   -7.6466 C   0  0  0  0  0  0  0  0  0  0  0  0
  -95.2294   22.5828   -6.2804 N   0  0  0  0  0  0  0  0  0  0  0  0
  -94.7859   22.1143   -8.6794 N   0  0  0  0  0  0  0  0  0  0  0  0
  -94.4326   22.9139   -5.7179 H   0  0  0  0  0  0  0  0  0  0  0  0
  -95.9538   21.9868   -5.8550 H   0  0  0  0  0  0  0  0  0  0  0  0
  -95.4155   21.7103   -9.3747 H   0  0  0  0  0  0  0  0  0  0  0  0
  -93.7667   21.9547   -8.6854 H   0  0  0  0  0  0  0  0  0  0  0  0
  -91.6299   26.6015   -1.1118 C   0  0  0  0  0  0  0  0  0  0  0  0
  -90.9726   25.3801   -0.8353 C   0  0  0  0  0  0  0  0  0  0  0  0
  -90.3169   24.6991   -1.8561 C   0  0  0  0  0  0  0  0  0  0  0  0
  -89.6652   23.5221   -1.6928 C   0  0  0  0  0  0  0  0  0  0  0  0
  -89.6385   22.9468   -0.4451 C   0  0  0  0  0  0  0  0  0  0  0  0
  -88.9870   21.7483   -0.2286 O   0  0  0  0  0  0  0  0  0  0  0  0
  -90.2684   23.5678    0.6098 C   0  0  0  0  0  0  0  0  0  0  0  0
  -90.9140   24.7511    0.4069 C   0  0  0  0  0  0  0  0  0  0  0  0
  -88.0130   21.6994    0.0353 H   0  0  0  0  0  0  0  0  0  0  0  0
 20 21  1  0  0  0
 21 22  1  0  0  0
 21 19  1  0  0  0
 19 15  1  0  0  0
 15 11  1  0  0  0
 11 12  1  0  0  0
 12 13  2  0  0  0
 12  6  1  0  0  0
  6  2  1  0  0  0
  2  3  1  0  0  0
  3  4  2  0  0  0
  3  1  1  0  0  0
  1 53  1  0  0  0
 53 54  1  0  0  0
 54 55  2  0  0  0
 55 56  1  0  0  0
 56 57  2  0  0  0
 57 58  1  0  0  0
 57 59  1  0  0  0
 59 60  2  0  0  0
  1 23  1  0  0  0
 23 24  1  0  0  0
 24 25  2  0  0  0
 24 27  1  0  0  0
 27 28  1  0  0  0
 28 29  1  0  0  0
 29 30  1  0  0  0
 30 31  1  0  0  0
 31 32  1  0  0  0
 32 33  2  0  0  0
 32 34  1  0  0  0
 34 42  1  0  0  0
 42 43  1  0  0  0
 43 44  1  0  0  0
 44 45  1  0  0  0
 45 46  2  0  0  0
 46 47  1  0  0  0
 46 48  1  0  0  0
 34 35  1  0  0  0
 35 36  2  0  0  0
 35 37  1  0  0  0
 37 38  1  0  0  0
 38 39  1  0  0  0
 38 40  1  0  0  0
 38 41  1  0  0  0
  6  7  1  0  0  0
  7  8  1  0  0  0
  7  9  1  0  0  0
  7 10  1  0  0  0
 15 16  1  0  0  0
 16 17  1  0  0  0
 16 18  1  0  0  0
 60 54  1  0  0  0
 31 27  1  0  0  0
 11 14  1  0  0  0
  2  5  1  0  0  0
 58 61  1  0  0  0
 23 26  1  0  0  0
 47 49  1  0  0  0
 47 50  1  0  0  0
 48 51  1  0  0  0
 48 52  1  0  0  0
M  END
> <minimizedAffinity>
-7.62531

> <CNNscore>
0.0864254534

> <CNNaffinity>
6.6483535767

> <CNN_VS>
0.5745869875

> <CNNaffinity_variance>
1.3324081898

$$$$
[H]Oc1c([H])c([H])c(C([H])([H])[C@@]([H])(C(=O)N([H])[C@]([H])(C(=O)N([H])[C@@]([H])(C([H])([H])C([H])(C([H])([H])[H])C([H])([H])[H])C([H])(C([H])([H])[H])C([H])([H])[H])C(C([H])([H])[H])(C([H])([H])[H])C([H])([H])[H])N([H])C(=O)[C@@]2([H])N(C(=O)[C@]([H])(C(=O)OC(C([H])([H])[H])(C([H])([H])[H])C([H])([H])[H])C([H])([H])C([H])([H])C([H])([H])N=C(N([H])[H])N([H])[H])C([H])([H])C([H])([H])C2([H])[H])c([H])c1[H]


 61 62  0  0  0  0  0  0  0  0999 V2000
  -88.5779   28.5364   -1.6384 C   0  0  0  0  0  0  0  0  0  0  0  0
  -90.3672   26.6310   -1.3361 N   0  0  0  0  0  0  0  0  0  0  0  0
  -89.5240   27.4758   -2.0104 C   0  0  0  0  0  0  0  0  0  0  0  0
  -89.5851   27.2758   -3.3374 O   0  0  0  0  0  0  0  0  0  0  0  0
  -90.5141   26.6393   -0.3200 H   0  0  0  0  0  0  0  0  0  0  0  0
  -91.1769   25.6195   -2.0321 C   0  0  0  0  0  0  0  0  0  0  0  0
  -91.1374   24.4096   -1.1831 C   0  0  0  0  0  0  0  0  0  0  0  0
  -90.1091   23.3759   -1.5374 C   0  0  0  0  0  0  0  0  0  0  0  0
  -92.5232   23.7784   -1.0072 C   0  0  0  0  0  0  0  0  0  0  0  0
  -90.7650   24.8910    0.2328 C   0  0  0  0  0  0  0  0  0  0  0  0
  -93.2668   25.8013   -3.4840 N   0  0  0  0  0  0  0  0  0  0  0  0
  -92.4572   26.1926   -2.3815 C   0  0  0  0  0  0  0  0  0  0  0  0
  -92.9285   27.1273   -1.6729 O   0  0  0  0  0  0  0  0  0  0  0  0
  -92.9055   25.0399   -4.0858 H   0  0  0  0  0  0  0  0  0  0  0  0
  -94.5563   26.4180   -3.8086 C   0  0  0  0  0  0  0  0  0  0  0  0
  -95.6214   25.5530   -3.3154 C   0  0  0  0  0  0  0  0  0  0  0  0
  -96.2312   25.8142   -1.9747 C   0  0  0  0  0  0  0  0  0  0  0  0
  -95.3651   24.0683   -3.4089 C   0  0  0  0  0  0  0  0  0  0  0  0
  -94.5610   27.1158   -5.0775 C   0  0  0  0  0  0  0  0  0  0  0  0
  -92.6520   27.1599   -6.7121 C   0  0  0  0  0  0  0  0  0  0  0  0
  -94.0196   26.6430   -6.3416 C   0  0  0  0  0  0  0  0  0  0  0  0
  -94.2590   25.2125   -6.7408 C   0  0  0  0  0  0  0  0  0  0  0  0
  -88.2401   29.4443   -2.6544 N   0  0  0  0  0  0  0  0  0  0  0  0
  -87.9158   30.3148   -3.6299 C   0  0  0  0  0  0  0  0  0  0  0  0
  -87.5129   30.1517   -4.8288 O   0  0  0  0  0  0  0  0  0  0  0  0
  -87.9601   28.4119   -3.4805 H   0  0  0  0  0  0  0  0  0  0  0  0
  -88.0122   31.8009   -3.2932 C   0  0  0  0  0  0  0  0  0  0  0  0
  -87.4797   32.0386   -1.9155 C   0  0  0  0  0  0  0  0  0  0  0  0
  -88.3282   33.1584   -1.3717 C   0  0  0  0  0  0  0  0  0  0  0  0
  -89.4395   33.3710   -2.3571 C   0  0  0  0  0  0  0  0  0  0  0  0
  -89.4024   32.2131   -3.2110 N   0  0  0  0  0  0  0  0  0  0  0  0
  -90.4568   31.5945   -3.9261 C   0  0  0  0  0  0  0  0  0  0  0  0
  -90.2204   30.6727   -4.7226 O   0  0  0  0  0  0  0  0  0  0  0  0
  -91.9284   31.9983   -3.7764 C   0  0  0  0  0  0  0  0  0  0  0  0
  -92.6449   30.8603   -3.1643 C   0  0  0  0  0  0  0  0  0  0  0  0
  -92.1079   30.2819   -2.1683 O   0  0  0  0  0  0  0  0  0  0  0  0
  -93.8552   30.3440   -3.5577 O   0  0  0  0  0  0  0  0  0  0  0  0
  -95.1036   30.5410   -3.0093 C   0  0  0  0  0  0  0  0  0  0  0  0
  -95.5462   29.5867   -1.9466 C   0  0  0  0  0  0  0  0  0  0  0  0
  -96.1184   30.3684   -4.1595 C   0  0  0  0  0  0  0  0  0  0  0  0
  -95.3187   31.9531   -2.5051 C   0  0  0  0  0  0  0  0  0  0  0  0
  -92.3902   32.2347   -5.1773 C   0  0  0  0  0  0  0  0  0  0  0  0
  -92.5024   33.5521   -5.7702 C   0  0  0  0  0  0  0  0  0  0  0  0
  -91.7171   34.6861   -5.2192 C   0  0  0  0  0  0  0  0  0  0  0  0
  -92.6743   35.5780   -4.4964 N   0  0  0  0  0  0  0  0  0  0  0  0
  -92.1773   36.6184   -3.9328 C   0  0  0  0  0  0  0  0  0  0  0  0
  -90.7884   36.8858   -4.0075 N   0  0  0  0  0  0  0  0  0  0  0  0
  -93.0673   37.4881   -3.2234 N   0  0  0  0  0  0  0  0  0  0  0  0
  -90.1464   36.4902   -3.3060 H   0  0  0  0  0  0  0  0  0  0  0  0
  -90.4262   37.4803   -4.7666 H   0  0  0  0  0  0  0  0  0  0  0  0
  -93.8128   37.9586   -3.7391 H   0  0  0  0  0  0  0  0  0  0  0  0
  -92.9237   37.6095   -2.2090 H   0  0  0  0  0  0  0  0  0  0  0  0
  -88.5756   29.0144   -0.2835 C   0  0  0  0  0  0  0  0  0  0  0  0
  -89.1886   28.5185    0.8906 C   0  0  0  0  0  0  0  0  0  0  0  0
  -90.4684   28.9413    1.2359 C   0  0  0  0  0  0  0  0  0  0  0  0
  -91.1362   28.5294    2.3410 C   0  0  0  0  0  0  0  0  0  0  0  0
  -90.5270   27.6361    3.1891 C   0  0  0  0  0  0  0  0  0  0  0  0
  -91.1671   27.1868    4.3276 O   0  0  0  0  0  0  0  0  0  0  0  0
  -89.2598   27.1778    2.9071 C   0  0  0  0  0  0  0  0  0  0  0  0
  -88.6194   27.6149    1.7858 C   0  0  0  0  0  0  0  0  0  0  0  0
  -91.7522   26.3632    4.3326 H   0  0  0  0  0  0  0  0  0  0  0  0
 20 21  1  0  0  0
 21 22  1  0  0  0
 21 19  1  0  0  0
 19 15  1  0  0  0
 15 11  1  0  0  0
 11 12  1  0  0  0
 12 13  2  0  0  0
 12  6  1  0  0  0
  6  2  1  0  0  0
  2  3  1  0  0  0
  3  4  2  0  0  0
  3  1  1  0  0  0
  1 53  1  0  0  0
 53 54  1  0  0  0
 54 55  2  0  0  0
 55 56  1  0  0  0
 56 57  2  0  0  0
 57 58  1  0  0  0
 57 59  1  0  0  0
 59 60  2  0  0  0
  1 23  1  0  0  0
 23 24  1  0  0  0
 24 25  2  0  0  0
 24 27  1  0  0  0
 27 28  1  0  0  0
 28 29  1  0  0  0
 29 30  1  0  0  0
 30 31  1  0  0  0
 31 32  1  0  0  0
 32 33  2  0  0  0
 32 34  1  0  0  0
 34 42  1  0  0  0
 42 43  1  0  0  0
 43 44  1  0  0  0
 44 45  1  0  0  0
 45 46  2  0  0  0
 46 47  1  0  0  0
 46 48  1  0  0  0
 34 35  1  0  0  0
 35 36  2  0  0  0
 35 37  1  0  0  0
 37 38  1  0  0  0
 38 39  1  0  0  0
 38 40  1  0  0  0
 38 41  1  0  0  0
  6  7  1  0  0  0
  7  8  1  0  0  0
  7  9  1  0  0  0
  7 10  1  0  0  0
 15 16  1  0  0  0
 16 17  1  0  0  0
 16 18  1  0  0  0
 60 54  1  0  0  0
 31 27  1  0  0  0
 11 14  1  0  0  0
  2  5  1  0  0  0
 58 61  1  0  0  0
 23 26  1  0  0  0
 47 49  1  0  0  0
 47 50  1  0  0  0
 48 51  1  0  0  0
 48 52  1  0  0  0
M  END
> <minimizedAffinity>
-6.48178

> <CNNscore>
0.0849504098

> <CNNaffinity>
6.9056062698

> <CNN_VS>
0.5866340995

> <CNNaffinity_variance>
1.2482587099

$$$$
[H]Oc1c([H])c([H])c(C([H])([H])[C@@]([H])(C(=O)N([H])[C@]([H])(C(=O)N([H])[C@@]([H])(C([H])([H])C([H])(C([H])([H])[H])C([H])([H])[H])C([H])(C([H])([H])[H])C([H])([H])[H])C(C([H])([H])[H])(C([H])([H])[H])C([H])([H])[H])N([H])C(=O)[C@@]2([H])N(C(=O)[C@]([H])(C(=O)OC(C([H])([H])[H])(C([H])([H])[H])C([H])([H])[H])C([H])([H])C([H])([H])C([H])([H])N=C(N([H])[H])N([H])[H])C([H])([H])C([H])([H])C2([H])[H])c([H])c1[H]


 61 62  0  0  0  0  0  0  0  0999 V2000
  -90.4986   31.6512   -1.7965 C   0  0  0  0  0  0  0  0  0  0  0  0
  -91.2803   32.9539   -3.9448 N   0  0  0  0  0  0  0  0  0  0  0  0
  -90.6171   31.9984   -3.2190 C   0  0  0  0  0  0  0  0  0  0  0  0
  -89.9038   31.1839   -4.0141 O   0  0  0  0  0  0  0  0  0  0  0  0
  -91.8492   33.7063   -3.5395 H   0  0  0  0  0  0  0  0  0  0  0  0
  -91.2174   32.9995   -5.4135 C   0  0  0  0  0  0  0  0  0  0  0  0
  -92.6168   32.9226   -5.8849 C   0  0  0  0  0  0  0  0  0  0  0  0
  -92.8751   33.3726   -7.2928 C   0  0  0  0  0  0  0  0  0  0  0  0
  -93.5967   33.5756   -4.9035 C   0  0  0  0  0  0  0  0  0  0  0  0
  -92.9983   31.4298   -5.8543 C   0  0  0  0  0  0  0  0  0  0  0  0
  -90.5635   35.4654   -5.3913 N   0  0  0  0  0  0  0  0  0  0  0  0
  -90.3983   34.1191   -5.8203 C   0  0  0  0  0  0  0  0  0  0  0  0
  -89.4469   33.9252   -6.6296 O   0  0  0  0  0  0  0  0  0  0  0  0
  -91.3375   35.6567   -4.7303 H   0  0  0  0  0  0  0  0  0  0  0  0
  -89.7149   36.5739   -5.8381 C   0  0  0  0  0  0  0  0  0  0  0  0
  -89.1164   37.2017   -4.6661 C   0  0  0  0  0  0  0  0  0  0  0  0
  -89.0243   36.4421   -3.3808 C   0  0  0  0  0  0  0  0  0  0  0  0
  -89.6119   38.5880   -4.3322 C   0  0  0  0  0  0  0  0  0  0  0  0
  -90.2394   37.2760   -6.9909 C   0  0  0  0  0  0  0  0  0  0  0  0
  -90.4806   37.9105   -9.4112 C   0  0  0  0  0  0  0  0  0  0  0  0
  -89.5932   37.4499   -8.2821 C   0  0  0  0  0  0  0  0  0  0  0  0
  -88.2049   38.0277   -8.3236 C   0  0  0  0  0  0  0  0  0  0  0  0
  -90.7270   30.3050   -1.4702 N   0  0  0  0  0  0  0  0  0  0  0  0
  -90.9468   29.0136   -1.1564 C   0  0  0  0  0  0  0  0  0  0  0  0
  -91.6461   28.4568   -0.2470 O   0  0  0  0  0  0  0  0  0  0  0  0
  -91.5297   30.6903   -0.4534 H   0  0  0  0  0  0  0  0  0  0  0  0
  -90.2361   27.9630   -2.0065 C   0  0  0  0  0  0  0  0  0  0  0  0
  -91.2408   27.0029   -2.5606 C   0  0  0  0  0  0  0  0  0  0  0  0
  -90.5199   25.6805   -2.5930 C   0  0  0  0  0  0  0  0  0  0  0  0
  -89.2234   25.8815   -1.8650 C   0  0  0  0  0  0  0  0  0  0  0  0
  -89.3767   27.1364   -1.1774 N   0  0  0  0  0  0  0  0  0  0  0  0
  -88.7753   27.5760    0.0271 C   0  0  0  0  0  0  0  0  0  0  0  0
  -88.9215   28.7467    0.4121 O   0  0  0  0  0  0  0  0  0  0  0  0
  -87.9255   26.6696    0.9255 C   0  0  0  0  0  0  0  0  0  0  0  0
  -88.8096   26.1251    1.9766 C   0  0  0  0  0  0  0  0  0  0  0  0
  -89.5372   25.1244    1.6863 O   0  0  0  0  0  0  0  0  0  0  0  0
  -88.9375   26.5873    3.2635 O   0  0  0  0  0  0  0  0  0  0  0  0
  -90.0710   26.9961    3.9315 C   0  0  0  0  0  0  0  0  0  0  0  0
  -90.9652   25.9323    4.4832 C   0  0  0  0  0  0  0  0  0  0  0  0
  -90.9329   27.7592    2.9031 C   0  0  0  0  0  0  0  0  0  0  0  0
  -89.7881   28.0012    5.0289 C   0  0  0  0  0  0  0  0  0  0  0  0
  -86.8984   27.5854    1.5070 C   0  0  0  0  0  0  0  0  0  0  0  0
  -85.6258   27.1302    2.0292 C   0  0  0  0  0  0  0  0  0  0  0  0
  -84.4731   28.0643    2.1007 C   0  0  0  0  0  0  0  0  0  0  0  0
  -84.9720   29.3383    2.7025 N   0  0  0  0  0  0  0  0  0  0  0  0
  -84.3953   30.4193    2.3203 C   0  0  0  0  0  0  0  0  0  0  0  0
  -83.3423   30.3799    1.3739 N   0  0  0  0  0  0  0  0  0  0  0  0
  -84.8439   31.6563    2.8862 N   0  0  0  0  0  0  0  0  0  0  0  0
  -82.3694   30.2518    1.6868 H   0  0  0  0  0  0  0  0  0  0  0  0
  -83.5564   30.4829    0.3717 H   0  0  0  0  0  0  0  0  0  0  0  0
  -85.8072   31.9535    2.7224 H   0  0  0  0  0  0  0  0  0  0  0  0
  -84.1737   32.2079    3.4440 H   0  0  0  0  0  0  0  0  0  0  0  0
  -89.5776   32.3924   -0.9800 C   0  0  0  0  0  0  0  0  0  0  0  0
  -88.1854   32.6137   -1.0949 C   0  0  0  0  0  0  0  0  0  0  0  0
  -87.7094   33.6086   -1.9431 C   0  0  0  0  0  0  0  0  0  0  0  0
  -86.3968   33.8924   -2.1256 C   0  0  0  0  0  0  0  0  0  0  0  0
  -85.4585   33.1613   -1.4374 C   0  0  0  0  0  0  0  0  0  0  0  0
  -84.1091   33.4133   -1.5897 O   0  0  0  0  0  0  0  0  0  0  0  0
  -85.8615   32.1608   -0.5819 C   0  0  0  0  0  0  0  0  0  0  0  0
  -87.1911   31.9042   -0.4242 C   0  0  0  0  0  0  0  0  0  0  0  0
  -83.6110   34.0738   -1.0098 H   0  0  0  0  0  0  0  0  0  0  0  0
 20 21  1  0  0  0
 21 22  1  0  0  0
 21 19  1  0  0  0
 19 15  1  0  0  0
 15 11  1  0  0  0
 11 12  1  0  0  0
 12 13  2  0  0  0
 12  6  1  0  0  0
  6  2  1  0  0  0
  2  3  1  0  0  0
  3  4  2  0  0  0
  3  1  1  0  0  0
  1 53  1  0  0  0
 53 54  1  0  0  0
 54 55  2  0  0  0
 55 56  1  0  0  0
 56 57  2  0  0  0
 57 58  1  0  0  0
 57 59  1  0  0  0
 59 60  2  0  0  0
  1 23  1  0  0  0
 23 24  1  0  0  0
 24 25  2  0  0  0
 24 27  1  0  0  0
 27 28  1  0  0  0
 28 29  1  0  0  0
 29 30  1  0  0  0
 30 31  1  0  0  0
 31 32  1  0  0  0
 32 33  2  0  0  0
 32 34  1  0  0  0
 34 42  1  0  0  0
 42 43  1  0  0  0
 43 44  1  0  0  0
 44 45  1  0  0  0
 45 46  2  0  0  0
 46 47  1  0  0  0
 46 48  1  0  0  0
 34 35  1  0  0  0
 35 36  2  0  0  0
 35 37  1  0  0  0
 37 38  1  0  0  0
 38 39  1  0  0  0
 38 40  1  0  0  0
 38 41  1  0  0  0
  6  7  1  0  0  0
  7  8  1  0  0  0
  7  9  1  0  0  0
  7 10  1  0  0  0
 15 16  1  0  0  0
 16 17  1  0  0  0
 16 18  1  0  0  0
 60 54  1  0  0  0
 31 27  1  0  0  0
 11 14  1  0  0  0
  2  5  1  0  0  0
 58 61  1  0  0  0
 23 26  1  0  0  0
 47 49  1  0  0  0
 47 50  1  0  0  0
 48 51  1  0  0  0
 48 52  1  0  0  0
M  END
> <minimizedAffinity>
-7.61401

> <CNNscore>
0.0830316469

> <CNNaffinity>
7.3951506615

> <CNN_VS>
0.6140315533

> <CNNaffinity_variance>
0.1868459284

$$$$
[H]Oc1c([H])c([H])c(C([H])([H])[C@@]([H])(C(=O)N([H])[C@]([H])(C(=O)N([H])[C@@]([H])(C([H])([H])C([H])(C([H])([H])[H])C([H])([H])[H])C([H])(C([H])([H])[H])C([H])([H])[H])C(C([H])([H])[H])(C([H])([H])[H])C([H])([H])[H])N([H])C(=O)[C@@]2([H])N(C(=O)[C@]([H])(C(=O)OC(C([H])([H])[H])(C([H])([H])[H])C([H])([H])[H])C([H])([H])C([H])([H])C([H])([H])N=C(N([H])[H])N([H])[H])C([H])([H])C([H])([H])C2([H])[H])c([H])c1[H]


 61 62  0  0  0  0  0  0  0  0999 V2000
  -87.7302   30.0951   -1.7871 C   0  0  0  0  0  0  0  0  0  0  0  0
  -89.3329   28.0085   -1.7580 N   0  0  0  0  0  0  0  0  0  0  0  0
  -88.8505   29.2354   -1.3819 C   0  0  0  0  0  0  0  0  0  0  0  0
  -89.5926   29.7763   -0.4014 O   0  0  0  0  0  0  0  0  0  0  0  0
  -88.8964   27.3978   -2.4583 H   0  0  0  0  0  0  0  0  0  0  0  0
  -90.5454   27.4310   -1.1582 C   0  0  0  0  0  0  0  0  0  0  0  0
  -91.4683   27.1615   -2.2816 C   0  0  0  0  0  0  0  0  0  0  0  0
  -92.0205   28.3593   -2.9971 C   0  0  0  0  0  0  0  0  0  0  0  0
  -92.5821   26.1817   -1.8955 C   0  0  0  0  0  0  0  0  0  0  0  0
  -90.6473   26.3951   -3.3369 C   0  0  0  0  0  0  0  0  0  0  0  0
  -90.8755   25.9481    0.8913 N   0  0  0  0  0  0  0  0  0  0  0  0
  -90.1713   26.3463   -0.2790 C   0  0  0  0  0  0  0  0  0  0  0  0
  -89.1324   25.6738   -0.5367 O   0  0  0  0  0  0  0  0  0  0  0  0
  -91.7294   26.4828    1.1310 H   0  0  0  0  0  0  0  0  0  0  0  0
  -90.4540   24.8468    1.7619 C   0  0  0  0  0  0  0  0  0  0  0  0
  -91.1181   23.6261    1.3204 C   0  0  0  0  0  0  0  0  0  0  0  0
  -92.5569   23.6675    0.9134 C   0  0  0  0  0  0  0  0  0  0  0  0
  -90.9382   22.4171    2.2062 C   0  0  0  0  0  0  0  0  0  0  0  0
  -90.2546   25.2426    3.1405 C   0  0  0  0  0  0  0  0  0  0  0  0
  -88.4901   27.0224    2.9462 C   0  0  0  0  0  0  0  0  0  0  0  0
  -89.7380   26.5135    3.6233 C   0  0  0  0  0  0  0  0  0  0  0  0
  -90.7139   27.5960    3.9956 C   0  0  0  0  0  0  0  0  0  0  0  0
  -87.8551   30.7205   -3.0377 N   0  0  0  0  0  0  0  0  0  0  0  0
  -87.9752   31.3198   -4.2381 C   0  0  0  0  0  0  0  0  0  0  0  0
  -88.1881   30.8631   -5.4096 O   0  0  0  0  0  0  0  0  0  0  0  0
  -88.0514   29.5157   -3.6178 H   0  0  0  0  0  0  0  0  0  0  0  0
  -87.8199   32.8383   -4.2735 C   0  0  0  0  0  0  0  0  0  0  0  0
  -87.0426   33.2909   -3.0781 C   0  0  0  0  0  0  0  0  0  0  0  0
  -87.6366   34.6303   -2.7277 C   0  0  0  0  0  0  0  0  0  0  0  0
  -88.8567   34.7952   -3.5852 C   0  0  0  0  0  0  0  0  0  0  0  0
  -89.1118   33.4839   -4.1206 N   0  0  0  0  0  0  0  0  0  0  0  0
  -90.3408   32.9034   -4.5184 C   0  0  0  0  0  0  0  0  0  0  0  0
  -90.3606   31.7984   -5.0831 O   0  0  0  0  0  0  0  0  0  0  0  0
  -91.7023   33.5699   -4.2882 C   0  0  0  0  0  0  0  0  0  0  0  0
  -92.7466   32.6079   -4.6972 C   0  0  0  0  0  0  0  0  0  0  0  0
  -93.1423   32.6328   -5.9045 O   0  0  0  0  0  0  0  0  0  0  0  0
  -93.3526   31.6660   -3.9025 O   0  0  0  0  0  0  0  0  0  0  0  0
  -94.6579   31.6073   -3.4657 C   0  0  0  0  0  0  0  0  0  0  0  0
  -95.3081   32.8936   -3.0675 C   0  0  0  0  0  0  0  0  0  0  0  0
  -94.6527   30.7414   -2.1879 C   0  0  0  0  0  0  0  0  0  0  0  0
  -95.5776   30.8827   -4.4267 C   0  0  0  0  0  0  0  0  0  0  0  0
  -91.6861   34.7621   -5.1884 C   0  0  0  0  0  0  0  0  0  0  0  0
  -91.9071   36.1169   -4.7244 C   0  0  0  0  0  0  0  0  0  0  0  0
  -93.2769   36.6911   -4.7279 C   0  0  0  0  0  0  0  0  0  0  0  0
  -93.2494   37.9081   -3.8606 N   0  0  0  0  0  0  0  0  0  0  0  0
  -93.8561   37.8244   -2.7328 C   0  0  0  0  0  0  0  0  0  0  0  0
  -94.5103   36.6272   -2.3523 N   0  0  0  0  0  0  0  0  0  0  0  0
  -93.8564   38.9773   -1.8828 N   0  0  0  0  0  0  0  0  0  0  0  0
  -95.4906   36.4642   -2.6231 H   0  0  0  0  0  0  0  0  0  0  0  0
  -93.9996   35.9228   -1.8010 H   0  0  0  0  0  0  0  0  0  0  0  0
  -92.9655   39.3303   -1.5295 H   0  0  0  0  0  0  0  0  0  0  0  0
  -94.7629   39.4145   -1.6557 H   0  0  0  0  0  0  0  0  0  0  0  0
  -86.9798   30.7759   -0.7685 C   0  0  0  0  0  0  0  0  0  0  0  0
  -85.8623   30.3782    0.0018 C   0  0  0  0  0  0  0  0  0  0  0  0
  -85.9041   29.1876    0.7205 C   0  0  0  0  0  0  0  0  0  0  0  0
  -84.8895   28.7247    1.4906 C   0  0  0  0  0  0  0  0  0  0  0  0
  -83.7351   29.4648    1.5810 C   0  0  0  0  0  0  0  0  0  0  0  0
  -82.6734   29.0347    2.3527 O   0  0  0  0  0  0  0  0  0  0  0  0
  -83.6276   30.6539    0.8955 C   0  0  0  0  0  0  0  0  0  0  0  0
  -84.6696   31.0873    0.1309 C   0  0  0  0  0  0  0  0  0  0  0  0
  -81.9369   28.4489    1.9852 H   0  0  0  0  0  0  0  0  0  0  0  0
 20 21  1  0  0  0
 21 22  1  0  0  0
 21 19  1  0  0  0
 19 15  1  0  0  0
 15 11  1  0  0  0
 11 12  1  0  0  0
 12 13  2  0  0  0
 12  6  1  0  0  0
  6  2  1  0  0  0
  2  3  1  0  0  0
  3  4  2  0  0  0
  3  1  1  0  0  0
  1 53  1  0  0  0
 53 54  1  0  0  0
 54 55  2  0  0  0
 55 56  1  0  0  0
 56 57  2  0  0  0
 57 58  1  0  0  0
 57 59  1  0  0  0
 59 60  2  0  0  0
  1 23  1  0  0  0
 23 24  1  0  0  0
 24 25  2  0  0  0
 24 27  1  0  0  0
 27 28  1  0  0  0
 28 29  1  0  0  0
 29 30  1  0  0  0
 30 31  1  0  0  0
 31 32  1  0  0  0
 32 33  2  0  0  0
 32 34  1  0  0  0
 34 42  1  0  0  0
 42 43  1  0  0  0
 43 44  1  0  0  0
 44 45  1  0  0  0
 45 46  2  0  0  0
 46 47  1  0  0  0
 46 48  1  0  0  0
 34 35  1  0  0  0
 35 36  2  0  0  0
 35 37  1  0  0  0
 37 38  1  0  0  0
 38 39  1  0  0  0
 38 40  1  0  0  0
 38 41  1  0  0  0
  6  7  1  0  0  0
  7  8  1  0  0  0
  7  9  1  0  0  0
  7 10  1  0  0  0
 15 16  1  0  0  0
 16 17  1  0  0  0
 16 18  1  0  0  0
 60 54  1  0  0  0
 31 27  1  0  0  0
 11 14  1  0  0  0
  2  5  1  0  0  0
 58 61  1  0  0  0
 23 26  1  0  0  0
 47 49  1  0  0  0
 47 50  1  0  0  0
 48 51  1  0  0  0
 48 52  1  0  0  0
M  END
> <minimizedAffinity>
-7.34946

> <CNNscore>
0.0788914263

> <CNNaffinity>
7.4648218155

> <CNN_VS>
0.5889104605

> <CNNaffinity_variance>
0.2180266827

$$$$
[H]Oc1c([H])c([H])c(C([H])([H])[C@@]([H])(C(=O)N([H])[C@]([H])(C(=O)N([H])[C@@]([H])(C([H])([H])C([H])(C([H])([H])[H])C([H])([H])[H])C([H])(C([H])([H])[H])C([H])([H])[H])C(C([H])([H])[H])(C([H])([H])[H])C([H])([H])[H])N([H])C(=O)[C@@]2([H])N(C(=O)[C@]([H])(C(=O)OC(C([H])([H])[H])(C([H])([H])[H])C([H])([H])[H])C([H])([H])C([H])([H])C([H])([H])N=C(N([H])[H])N([H])[H])C([H])([H])C([H])([H])C2([H])[H])c([H])c1[H]


 61 62  0  0  0  0  0  0  0  0999 V2000
  -90.7386   29.5106   -1.4882 C   0  0  0  0  0  0  0  0  0  0  0  0
  -89.2738   31.6226   -2.0517 N   0  0  0  0  0  0  0  0  0  0  0  0
  -89.5548   30.2934   -1.8680 C   0  0  0  0  0  0  0  0  0  0  0  0
  -88.4752   29.5266   -2.0943 O   0  0  0  0  0  0  0  0  0  0  0  0
  -89.9382   32.3886   -1.8909 H   0  0  0  0  0  0  0  0  0  0  0  0
  -87.9482   32.0852   -2.4897 C   0  0  0  0  0  0  0  0  0  0  0  0
  -88.1874   33.2906   -3.3120 C   0  0  0  0  0  0  0  0  0  0  0  0
  -87.0188   34.2116   -3.5063 C   0  0  0  0  0  0  0  0  0  0  0  0
  -89.4344   34.0611   -2.8636 C   0  0  0  0  0  0  0  0  0  0  0  0
  -88.5496   32.7836   -4.7214 C   0  0  0  0  0  0  0  0  0  0  0  0
  -85.9766   31.3153   -1.0653 N   0  0  0  0  0  0  0  0  0  0  0  0
  -87.0735   32.1780   -1.3426 C   0  0  0  0  0  0  0  0  0  0  0  0
  -87.2716   33.0879   -0.4878 O   0  0  0  0  0  0  0  0  0  0  0  0
  -85.7911   30.5570   -1.7459 H   0  0  0  0  0  0  0  0  0  0  0  0
  -85.1203   31.4390    0.1178 C   0  0  0  0  0  0  0  0  0  0  0  0
  -83.8200   31.9479   -0.3018 C   0  0  0  0  0  0  0  0  0  0  0  0
  -82.5996   31.6216    0.4993 C   0  0  0  0  0  0  0  0  0  0  0  0
  -83.7597   33.4202   -0.6295 C   0  0  0  0  0  0  0  0  0  0  0  0
  -85.3372   30.3978    1.1006 C   0  0  0  0  0  0  0  0  0  0  0  0
  -85.0248   31.5680    3.3032 C   0  0  0  0  0  0  0  0  0  0  0  0
  -84.8049   30.3420    2.4528 C   0  0  0  0  0  0  0  0  0  0  0  0
  -84.8986   29.0478    3.2138 C   0  0  0  0  0  0  0  0  0  0  0  0
  -90.7307   28.9720   -0.1918 N   0  0  0  0  0  0  0  0  0  0  0  0
  -90.7239   28.4558    1.0524 C   0  0  0  0  0  0  0  0  0  0  0  0
  -91.4757   28.6435    2.0652 O   0  0  0  0  0  0  0  0  0  0  0  0
  -91.8162   29.7142    0.1204 H   0  0  0  0  0  0  0  0  0  0  0  0
  -89.6161   27.4585    1.3832 C   0  0  0  0  0  0  0  0  0  0  0  0
  -88.2857   28.0612    1.0592 C   0  0  0  0  0  0  0  0  0  0  0  0
  -87.4502   26.8989    0.5893 C   0  0  0  0  0  0  0  0  0  0  0  0
  -88.3805   25.7294    0.4548 C   0  0  0  0  0  0  0  0  0  0  0  0
  -89.7008   26.2993    0.5124 N   0  0  0  0  0  0  0  0  0  0  0  0
  -90.9036   25.8310   -0.0704 C   0  0  0  0  0  0  0  0  0  0  0  0
  -91.9846   26.3821    0.1901 O   0  0  0  0  0  0  0  0  0  0  0  0
  -90.9652   24.6461   -1.0415 C   0  0  0  0  0  0  0  0  0  0  0  0
  -91.2099   25.1879   -2.3941 C   0  0  0  0  0  0  0  0  0  0  0  0
  -90.4731   26.1412   -2.7984 O   0  0  0  0  0  0  0  0  0  0  0  0
  -92.1653   24.7681   -3.2869 O   0  0  0  0  0  0  0  0  0  0  0  0
  -93.3830   25.3377   -3.5884 C   0  0  0  0  0  0  0  0  0  0  0  0
  -94.5610   24.4236   -3.6993 C   0  0  0  0  0  0  0  0  0  0  0  0
  -93.2321   25.9782   -4.9848 C   0  0  0  0  0  0  0  0  0  0  0  0
  -93.7506   26.4839   -2.6689 C   0  0  0  0  0  0  0  0  0  0  0  0
  -92.1292   23.8397   -0.5657 C   0  0  0  0  0  0  0  0  0  0  0  0
  -92.3913   22.4819   -0.9987 C   0  0  0  0  0  0  0  0  0  0  0  0
  -92.2065   21.3504   -0.0544 C   0  0  0  0  0  0  0  0  0  0  0  0
  -90.7356   21.1194    0.0778 N   0  0  0  0  0  0  0  0  0  0  0  0
  -90.2726   21.0295    1.2714 C   0  0  0  0  0  0  0  0  0  0  0  0
  -91.1333   21.1458    2.3901 N   0  0  0  0  0  0  0  0  0  0  0  0
  -88.8650   20.8181    1.4318 N   0  0  0  0  0  0  0  0  0  0  0  0
  -91.3370   22.0717    2.7926 H   0  0  0  0  0  0  0  0  0  0  0  0
  -91.5514   20.2981    2.7991 H   0  0  0  0  0  0  0  0  0  0  0  0
  -88.4492   19.9617    1.0622 H   0  0  0  0  0  0  0  0  0  0  0  0
  -88.3161   21.5438    1.9182 H   0  0  0  0  0  0  0  0  0  0  0  0
  -92.0088   29.8585   -2.0624 C   0  0  0  0  0  0  0  0  0  0  0  0
  -92.3544   30.4147   -3.3160 C   0  0  0  0  0  0  0  0  0  0  0  0
  -92.5491   29.5822   -4.4137 C   0  0  0  0  0  0  0  0  0  0  0  0
  -92.8757   30.0188   -5.6544 C   0  0  0  0  0  0  0  0  0  0  0  0
  -93.0293   31.3683   -5.8632 C   0  0  0  0  0  0  0  0  0  0  0  0
  -93.3619   31.8617   -7.1097 O   0  0  0  0  0  0  0  0  0  0  0  0
  -92.8502   32.2483   -4.8196 C   0  0  0  0  0  0  0  0  0  0  0  0
  -92.5219   31.7716   -3.5854 C   0  0  0  0  0  0  0  0  0  0  0  0
  -94.3194   31.9912   -7.4047 H   0  0  0  0  0  0  0  0  0  0  0  0
 20 21  1  0  0  0
 21 22  1  0  0  0
 21 19  1  0  0  0
 19 15  1  0  0  0
 15 11  1  0  0  0
 11 12  1  0  0  0
 12 13  2  0  0  0
 12  6  1  0  0  0
  6  2  1  0  0  0
  2  3  1  0  0  0
  3  4  2  0  0  0
  3  1  1  0  0  0
  1 53  1  0  0  0
 53 54  1  0  0  0
 54 55  2  0  0  0
 55 56  1  0  0  0
 56 57  2  0  0  0
 57 58  1  0  0  0
 57 59  1  0  0  0
 59 60  2  0  0  0
  1 23  1  0  0  0
 23 24  1  0  0  0
 24 25  2  0  0  0
 24 27  1  0  0  0
 27 28  1  0  0  0
 28 29  1  0  0  0
 29 30  1  0  0  0
 30 31  1  0  0  0
 31 32  1  0  0  0
 32 33  2  0  0  0
 32 34  1  0  0  0
 34 42  1  0  0  0
 42 43  1  0  0  0
 43 44  1  0  0  0
 44 45  1  0  0  0
 45 46  2  0  0  0
 46 47  1  0  0  0
 46 48  1  0  0  0
 34 35  1  0  0  0
 35 36  2  0  0  0
 35 37  1  0  0  0
 37 38  1  0  0  0
 38 39  1  0  0  0
 38 40  1  0  0  0
 38 41  1  0  0  0
  6  7  1  0  0  0
  7  8  1  0  0  0
  7  9  1  0  0  0
  7 10  1  0  0  0
 15 16  1  0  0  0
 16 17  1  0  0  0
 16 18  1  0  0  0
 60 54  1  0  0  0
 31 27  1  0  0  0
 11 14  1  0  0  0
  2  5  1  0  0  0
 58 61  1  0  0  0
 23 26  1  0  0  0
 47 49  1  0  0  0
 47 50  1  0  0  0
 48 51  1  0  0  0
 48 52  1  0  0  0
M  END
> <minimizedAffinity>
-7.96075

> <CNNscore>
0.0746815577

> <CNNaffinity>
6.8815774918

> <CNN_VS>
0.5139269233

> <CNNaffinity_variance>
1.7248144150

$$$$
[H]c1c([H])c(-n2c(=O)c3c([H])nc4c([H])c([H])c([H])c([H])c4c3n2[H])c([H])c([H])c1OC([H])([H])[H]


 23 26  0  0  0  0  0  0  0  0999 V2000
  -85.9245   32.3555   -0.8084 N   0  0  0  0  0  0  0  0  0  0  0  0
  -86.0726   31.1878   -0.2160 N   0  0  0  0  0  0  0  0  0  0  0  0
  -84.9159   30.8267    0.3947 C   0  0  0  0  0  0  0  0  0  0  0  0
  -84.0269   31.8487    0.1461 C   0  0  0  0  0  0  0  0  0  0  0  0
  -82.7323   31.7616    0.6544 C   0  0  0  0  0  0  0  0  0  0  0  0
  -82.4076   30.6732    1.3712 N   0  0  0  0  0  0  0  0  0  0  0  0
  -83.2505   29.6613    1.6305 C   0  0  0  0  0  0  0  0  0  0  0  0
  -82.8318   28.5596    2.3881 C   0  0  0  0  0  0  0  0  0  0  0  0
  -83.7198   27.5398    2.6357 C   0  0  0  0  0  0  0  0  0  0  0  0
  -85.0123   27.6278    2.1277 C   0  0  0  0  0  0  0  0  0  0  0  0
  -85.4284   28.7081    1.3830 C   0  0  0  0  0  0  0  0  0  0  0  0
  -84.5354   29.7290    1.1364 C   0  0  0  0  0  0  0  0  0  0  0  0
  -84.6683   32.7973   -0.6060 C   0  0  0  0  0  0  0  0  0  0  0  0
  -84.1945   33.8805   -1.0359 O   0  0  0  0  0  0  0  0  0  0  0  0
  -86.9230   30.5745   -0.1794 H   0  0  0  0  0  0  0  0  0  0  0  0
  -88.9146   34.4154   -3.0101 C   0  0  0  0  0  0  0  0  0  0  0  0
  -89.2445   33.5097   -2.0196 C   0  0  0  0  0  0  0  0  0  0  0  0
  -88.2718   32.8445   -1.3087 C   0  0  0  0  0  0  0  0  0  0  0  0
  -86.9282   33.0464   -1.5469 C   0  0  0  0  0  0  0  0  0  0  0  0
  -86.6042   33.9576   -2.5434 C   0  0  0  0  0  0  0  0  0  0  0  0
  -87.5759   34.6269   -3.2586 C   0  0  0  0  0  0  0  0  0  0  0  0
  -89.8357   36.4884   -3.9473 C   0  0  0  0  0  0  0  0  0  0  0  0
  -89.8975   35.0960   -3.7376 O   0  0  0  0  0  0  0  0  0  0  0  0
 22 23  1  0  0  0
 23 16  1  0  0  0
 16 17  2  0  0  0
 17 18  1  0  0  0
 18 19  2  0  0  0
 19 20  1  0  0  0
 20 21  2  0  0  0
 19  1  1  0  0  0
  1  2  1  0  0  0
  2  3  1  0  0  0
  3  4  2  0  0  0
  4  5  1  0  0  0
  5  6  2  0  0  0
  6  7  1  0  0  0
  7  8  2  0  0  0
  8  9  1  0  0  0
  9 10  2  0  0  0
 10 11  1  0  0  0
 11 12  2  0  0  0
  4 13  1  0  0  0
 13 14  2  0  0  0
 21 16  1  0  0  0
 13  1  1  0  0  0
 12  3  1  0  0  0
 12  7  1  0  0  0
  2 15  1  0  0  0
M  END
> <minimizedAffinity>
-9.24730

> <CNNscore>
0.8515853882

> <CNNaffinity>
6.3593277931

> <CNN_VS>
5.4155106544

> <CNNaffinity_variance>
0.0622810945

$$$$
[H]c1c([H])c(-n2c(=O)c3c([H])nc4c([H])c([H])c([H])c([H])c4c3n2[H])c([H])c([H])c1OC([H])([H])[H]


 23 26  0  0  0  0  0  0  0  0999 V2000
  -86.6161   28.0555    1.2622 N   0  0  0  0  0  0  0  0  0  0  0  0
  -86.6766   29.2218    0.6518 N   0  0  0  0  0  0  0  0  0  0  0  0
  -85.4776   29.8518    0.7340 C   0  0  0  0  0  0  0  0  0  0  0  0
  -84.6558   29.0012    1.4394 C   0  0  0  0  0  0  0  0  0  0  0  0
  -83.3382   29.3806    1.6881 C   0  0  0  0  0  0  0  0  0  0  0  0
  -82.9258   30.5714    1.2234 N   0  0  0  0  0  0  0  0  0  0  0  0
  -83.7018   31.4219    0.5334 C   0  0  0  0  0  0  0  0  0  0  0  0
  -83.1933   32.6474    0.0833 C   0  0  0  0  0  0  0  0  0  0  0  0
  -84.0144   33.4960   -0.6208 C   0  0  0  0  0  0  0  0  0  0  0  0
  -85.3298   33.1161   -0.8685 C   0  0  0  0  0  0  0  0  0  0  0  0
  -85.8341   31.9132   -0.4285 C   0  0  0  0  0  0  0  0  0  0  0  0
  -85.0081   31.0646    0.2773 C   0  0  0  0  0  0  0  0  0  0  0  0
  -85.3781   27.8831    1.7637 C   0  0  0  0  0  0  0  0  0  0  0  0
  -84.9813   26.8766    2.4056 O   0  0  0  0  0  0  0  0  0  0  0  0
  -87.4907   29.6613    0.1570 H   0  0  0  0  0  0  0  0  0  0  0  0
  -89.8035   25.2711    1.6071 C   0  0  0  0  0  0  0  0  0  0  0  0
  -88.9391   25.2470    0.5290 C   0  0  0  0  0  0  0  0  0  0  0  0
  -87.9074   26.1514    0.4216 C   0  0  0  0  0  0  0  0  0  0  0  0
  -87.6855   27.1210    1.3775 C   0  0  0  0  0  0  0  0  0  0  0  0
  -88.5579   27.1393    2.4577 C   0  0  0  0  0  0  0  0  0  0  0  0
  -89.5935   26.2344    2.5695 C   0  0  0  0  0  0  0  0  0  0  0  0
  -91.8912   24.2880    0.7709 C   0  0  0  0  0  0  0  0  0  0  0  0
  -90.8550   24.3550    1.7239 O   0  0  0  0  0  0  0  0  0  0  0  0
 22 23  1  0  0  0
 23 16  1  0  0  0
 16 17  2  0  0  0
 17 18  1  0  0  0
 18 19  2  0  0  0
 19 20  1  0  0  0
 20 21  2  0  0  0
 19  1  1  0  0  0
  1  2  1  0  0  0
  2  3  1  0  0  0
  3  4  2  0  0  0
  4  5  1  0  0  0
  5  6  2  0  0  0
  6  7  1  0  0  0
  7  8  2  0  0  0
  8  9  1  0  0  0
  9 10  2  0  0  0
 10 11  1  0  0  0
 11 12  2  0  0  0
  4 13  1  0  0  0
 13 14  2  0  0  0
 21 16  1  0  0  0
 13  1  1  0  0  0
 12  3  1  0  0  0
 12  7  1  0  0  0
  2 15  1  0  0  0
M  END
> <minimizedAffinity>
-8.42957

> <CNNscore>
0.6759039164

> <CNNaffinity>
6.4540648460

> <CNN_VS>
4.3623275757

> <CNNaffinity_variance>
0.2588473558

$$$$
[H]c1c([H])c(-n2c(=O)c3c([H])nc4c([H])c([H])c([H])c([H])c4c3n2[H])c([H])c([H])c1OC([H])([H])[H]


 23 26  0  0  0  0  0  0  0  0999 V2000
  -86.5935   28.1244    1.3992 N   0  0  0  0  0  0  0  0  0  0  0  0
  -86.6428   29.2848    0.7768 N   0  0  0  0  0  0  0  0  0  0  0  0
  -85.4274   29.8867    0.8190 C   0  0  0  0  0  0  0  0  0  0  0  0
  -84.6072   29.0247    1.5123 C   0  0  0  0  0  0  0  0  0  0  0  0
  -83.2747   29.3751    1.7209 C   0  0  0  0  0  0  0  0  0  0  0  0
  -82.8469   30.5502    1.2310 N   0  0  0  0  0  0  0  0  0  0  0  0
  -83.6210   31.4113    0.5520 C   0  0  0  0  0  0  0  0  0  0  0  0
  -83.0959   32.6190    0.0737 C   0  0  0  0  0  0  0  0  0  0  0  0
  -83.9155   33.4791   -0.6182 C   0  0  0  0  0  0  0  0  0  0  0  0
  -85.2458   33.1281   -0.8259 C   0  0  0  0  0  0  0  0  0  0  0  0
  -85.7663   31.9428   -0.3581 C   0  0  0  0  0  0  0  0  0  0  0  0
  -84.9419   31.0826    0.3354 C   0  0  0  0  0  0  0  0  0  0  0  0
  -85.3467   27.9280    1.8693 C   0  0  0  0  0  0  0  0  0  0  0  0
  -84.9566   26.9196    2.5124 O   0  0  0  0  0  0  0  0  0  0  0  0
  -87.4593   29.7381    0.2987 H   0  0  0  0  0  0  0  0  0  0  0  0
  -89.8348   25.4202    1.8601 C   0  0  0  0  0  0  0  0  0  0  0  0
  -89.5365   26.3593    2.8292 C   0  0  0  0  0  0  0  0  0  0  0  0
  -88.4850   27.2337    2.6753 C   0  0  0  0  0  0  0  0  0  0  0  0
  -87.6812   27.2172    1.5544 C   0  0  0  0  0  0  0  0  0  0  0  0
  -87.9867   26.2711    0.5850 C   0  0  0  0  0  0  0  0  0  0  0  0
  -89.0400   25.3925    0.7349 C   0  0  0  0  0  0  0  0  0  0  0  0
  -91.1164   23.8187    3.2079 C   0  0  0  0  0  0  0  0  0  0  0  0
  -90.9023   24.5275    2.0087 O   0  0  0  0  0  0  0  0  0  0  0  0
 22 23  1  0  0  0
 23 16  1  0  0  0
 16 17  2  0  0  0
 17 18  1  0  0  0
 18 19  2  0  0  0
 19 20  1  0  0  0
 20 21  2  0  0  0
 19  1  1  0  0  0
  1  2  1  0  0  0
  2  3  1  0  0  0
  3  4  2  0  0  0
  4  5  1  0  0  0
  5  6  2  0  0  0
  6  7  1  0  0  0
  7  8  2  0  0  0
  8  9  1  0  0  0
  9 10  2  0  0  0
 10 11  1  0  0  0
 11 12  2  0  0  0
  4 13  1  0  0  0
 13 14  2  0  0  0
 21 16  1  0  0  0
 13  1  1  0  0  0
 12  3  1  0  0  0
 12  7  1  0  0  0
  2 15  1  0  0  0
M  END
> <minimizedAffinity>
-8.65504

> <CNNscore>
0.6726326942

> <CNNaffinity>
6.4346070290

> <CNN_VS>
4.3281269073

> <CNNaffinity_variance>
0.2231265754

$$$$
[H]c1c([H])c(-n2c(=O)c3c([H])nc4c([H])c([H])c([H])c([H])c4c3n2[H])c([H])c([H])c1OC([H])([H])[H]


 23 26  0  0  0  0  0  0  0  0999 V2000
  -86.5524   32.3542   -1.0945 N   0  0  0  0  0  0  0  0  0  0  0  0
  -86.8040   31.1053   -0.7579 N   0  0  0  0  0  0  0  0  0  0  0  0
  -85.8798   30.6696    0.1351 C   0  0  0  0  0  0  0  0  0  0  0  0
  -85.0268   31.7314    0.3384 C   0  0  0  0  0  0  0  0  0  0  0  0
  -83.9575   31.5846    1.2200 C   0  0  0  0  0  0  0  0  0  0  0  0
  -83.8064   30.4015    1.8374 N   0  0  0  0  0  0  0  0  0  0  0  0
  -84.6199   29.3486    1.6604 C   0  0  0  0  0  0  0  0  0  0  0  0
  -84.3920   28.1473    2.3444 C   0  0  0  0  0  0  0  0  0  0  0  0
  -85.2440   27.0877    2.1407 C   0  0  0  0  0  0  0  0  0  0  0  0
  -86.3113   27.2355    1.2603 C   0  0  0  0  0  0  0  0  0  0  0  0
  -86.5396   28.4137    0.5860 C   0  0  0  0  0  0  0  0  0  0  0  0
  -85.6833   29.4742    0.7924 C   0  0  0  0  0  0  0  0  0  0  0  0
  -85.4571   32.7774   -0.4347 C   0  0  0  0  0  0  0  0  0  0  0  0
  -84.9434   33.9221   -0.5263 O   0  0  0  0  0  0  0  0  0  0  0  0
  -87.5801   30.4811   -1.0877 H   0  0  0  0  0  0  0  0  0  0  0  0
  -88.8204   34.6899   -3.8206 C   0  0  0  0  0  0  0  0  0  0  0  0
  -87.4536   34.5421   -3.9620 C   0  0  0  0  0  0  0  0  0  0  0  0
  -86.7227   33.7840   -3.0759 C   0  0  0  0  0  0  0  0  0  0  0  0
  -87.3130   33.1381   -2.0095 C   0  0  0  0  0  0  0  0  0  0  0  0
  -88.6864   33.2910   -1.8737 C   0  0  0  0  0  0  0  0  0  0  0  0
  -89.4232   34.0500   -2.7596 C   0  0  0  0  0  0  0  0  0  0  0  0
  -89.1754   36.7583   -5.0934 C   0  0  0  0  0  0  0  0  0  0  0  0
  -89.5710   35.4589   -4.7172 O   0  0  0  0  0  0  0  0  0  0  0  0
 22 23  1  0  0  0
 23 16  1  0  0  0
 16 17  2  0  0  0
 17 18  1  0  0  0
 18 19  2  0  0  0
 19 20  1  0  0  0
 20 21  2  0  0  0
 19  1  1  0  0  0
  1  2  1  0  0  0
  2  3  1  0  0  0
  3  4  2  0  0  0
  4  5  1  0  0  0
  5  6  2  0  0  0
  6  7  1  0  0  0
  7  8  2  0  0  0
  8  9  1  0  0  0
  9 10  2  0  0  0
 10 11  1  0  0  0
 11 12  2  0  0  0
  4 13  1  0  0  0
 13 14  2  0  0  0
 21 16  1  0  0  0
 13  1  1  0  0  0
 12  3  1  0  0  0
 12  7  1  0  0  0
  2 15  1  0  0  0
M  END
> <minimizedAffinity>
-7.94954

> <CNNscore>
0.6053438187

> <CNNaffinity>
6.0122237206

> <CNN_VS>
3.6394624710

> <CNNaffinity_variance>
0.0685906857

$$$$
[H]c1c([H])c(-n2c(=O)c3c([H])nc4c([H])c([H])c([H])c([H])c4c3n2[H])c([H])c([H])c1OC([H])([H])[H]


 23 26  0  0  0  0  0  0  0  0999 V2000
  -86.9933   33.7429   -2.3318 N   0  0  0  0  0  0  0  0  0  0  0  0
  -85.7658   33.5913   -1.8773 N   0  0  0  0  0  0  0  0  0  0  0  0
  -85.7207   32.5603   -0.9962 C   0  0  0  0  0  0  0  0  0  0  0  0
  -87.0063   32.0716   -0.9263 C   0  0  0  0  0  0  0  0  0  0  0  0
  -87.2780   30.9918   -0.0884 C   0  0  0  0  0  0  0  0  0  0  0  0
  -86.2625   30.4717    0.6203 N   0  0  0  0  0  0  0  0  0  0  0  0
  -85.0000   30.9251    0.5741 C   0  0  0  0  0  0  0  0  0  0  0  0
  -83.9972   30.3249    1.3468 C   0  0  0  0  0  0  0  0  0  0  0  0
  -82.7140   30.8134    1.2766 C   0  0  0  0  0  0  0  0  0  0  0  0
  -82.4439   31.8917    0.4395 C   0  0  0  0  0  0  0  0  0  0  0  0
  -83.4256   32.4846   -0.3217 C   0  0  0  0  0  0  0  0  0  0  0  0
  -84.7113   31.9924   -0.2488 C   0  0  0  0  0  0  0  0  0  0  0  0
  -87.7916   32.8182   -1.7647 C   0  0  0  0  0  0  0  0  0  0  0  0
  -89.0239   32.6835   -1.9792 O   0  0  0  0  0  0  0  0  0  0  0  0
  -84.9060   34.1438   -2.1143 H   0  0  0  0  0  0  0  0  0  0  0  0
  -88.2529   36.6708   -5.1375 C   0  0  0  0  0  0  0  0  0  0  0  0
  -88.1272   36.9677   -3.7935 C   0  0  0  0  0  0  0  0  0  0  0  0
  -87.7186   36.0154   -2.8880 C   0  0  0  0  0  0  0  0  0  0  0  0
  -87.4160   34.7257   -3.2728 C   0  0  0  0  0  0  0  0  0  0  0  0
  -87.5446   34.4346   -4.6245 C   0  0  0  0  0  0  0  0  0  0  0  0
  -87.9538   35.3862   -5.5360 C   0  0  0  0  0  0  0  0  0  0  0  0
  -88.0699   37.7460   -7.3363 C   0  0  0  0  0  0  0  0  0  0  0  0
  -88.6677   37.6333   -6.0649 O   0  0  0  0  0  0  0  0  0  0  0  0
 22 23  1  0  0  0
 23 16  1  0  0  0
 16 17  2  0  0  0
 17 18  1  0  0  0
 18 19  2  0  0  0
 19 20  1  0  0  0
 20 21  2  0  0  0
 19  1  1  0  0  0
  1  2  1  0  0  0
  2  3  1  0  0  0
  3  4  2  0  0  0
  4  5  1  0  0  0
  5  6  2  0  0  0
  6  7  1  0  0  0
  7  8  2  0  0  0
  8  9  1  0  0  0
  9 10  2  0  0  0
 10 11  1  0  0  0
 11 12  2  0  0  0
  4 13  1  0  0  0
 13 14  2  0  0  0
 21 16  1  0  0  0
 13  1  1  0  0  0
 12  3  1  0  0  0
 12  7  1  0  0  0
  2 15  1  0  0  0
M  END
> <minimizedAffinity>
-8.10551

> <CNNscore>
0.5084128380

> <CNNaffinity>
5.7253165245

> <CNN_VS>
2.9108245373

> <CNNaffinity_variance>
0.1660450250

$$$$
[H]c1c([H])c(-n2c(=O)c3c([H])nc4c([H])c([H])c([H])c([H])c4c3n2[H])c([H])c([H])c1OC([H])([H])[H]


 23 26  0  0  0  0  0  0  0  0999 V2000
  -86.2789   28.6542    0.6155 N   0  0  0  0  0  0  0  0  0  0  0  0
  -87.2236   27.8084    0.2569 N   0  0  0  0  0  0  0  0  0  0  0  0
  -88.2016   28.4632   -0.4183 C   0  0  0  0  0  0  0  0  0  0  0  0
  -87.8079   29.7822   -0.4607 C   0  0  0  0  0  0  0  0  0  0  0  0
  -88.6231   30.7142   -1.1001 C   0  0  0  0  0  0  0  0  0  0  0  0
  -89.7677   30.2785   -1.6516 N   0  0  0  0  0  0  0  0  0  0  0  0
  -90.1786   29.0010   -1.6270 C   0  0  0  0  0  0  0  0  0  0  0  0
  -91.3886   28.6285   -2.2274 C   0  0  0  0  0  0  0  0  0  0  0  0
  -91.7809   27.3116   -2.1845 C   0  0  0  0  0  0  0  0  0  0  0  0
  -90.9661   26.3819   -1.5458 C   0  0  0  0  0  0  0  0  0  0  0  0
  -89.7766   26.7428   -0.9545 C   0  0  0  0  0  0  0  0  0  0  0  0
  -89.3861   28.0642   -0.9992 C   0  0  0  0  0  0  0  0  0  0  0  0
  -86.6060   29.8888    0.1881 C   0  0  0  0  0  0  0  0  0  0  0  0
  -85.9216   30.9298    0.3628 O   0  0  0  0  0  0  0  0  0  0  0  0
  -87.2791   26.7752    0.4310 H   0  0  0  0  0  0  0  0  0  0  0  0
  -82.7573   27.6684    2.7738 C   0  0  0  0  0  0  0  0  0  0  0  0
  -83.7481   26.7323    2.5451 C   0  0  0  0  0  0  0  0  0  0  0  0
  -84.8877   27.0565    1.8450 C   0  0  0  0  0  0  0  0  0  0  0  0
  -85.0974   28.3229    1.3398 C   0  0  0  0  0  0  0  0  0  0  0  0
  -84.0979   29.2581    1.5734 C   0  0  0  0  0  0  0  0  0  0  0  0
  -82.9537   28.9375    2.2747 C   0  0  0  0  0  0  0  0  0  0  0  0
  -80.9142   26.1297    3.2830 C   0  0  0  0  0  0  0  0  0  0  0  0
  -81.5955   27.3469    3.4846 O   0  0  0  0  0  0  0  0  0  0  0  0
 22 23  1  0  0  0
 23 16  1  0  0  0
 16 17  2  0  0  0
 17 18  1  0  0  0
 18 19  2  0  0  0
 19 20  1  0  0  0
 20 21  2  0  0  0
 19  1  1  0  0  0
  1  2  1  0  0  0
  2  3  1  0  0  0
  3  4  2  0  0  0
  4  5  1  0  0  0
  5  6  2  0  0  0
  6  7  1  0  0  0
  7  8  2  0  0  0
  8  9  1  0  0  0
  9 10  2  0  0  0
 10 11  1  0  0  0
 11 12  2  0  0  0
  4 13  1  0  0  0
 13 14  2  0  0  0
 21 16  1  0  0  0
 13  1  1  0  0  0
 12  3  1  0  0  0
 12  7  1  0  0  0
  2 15  1  0  0  0
M  END
> <minimizedAffinity>
-2.07921

> <CNNscore>
0.3133021891

> <CNNaffinity>
5.3585996628

> <CNN_VS>
1.6788610220

> <CNNaffinity_variance>
0.3851152360

$$$$
[H]c1c([H])c(-n2c(=O)c3c([H])nc4c([H])c([H])c([H])c([H])c4c3n2[H])c([H])c([H])c1OC([H])([H])[H]


 23 26  0  0  0  0  0  0  0  0999 V2000
  -88.4852   30.3551   -0.9699 N   0  0  0  0  0  0  0  0  0  0  0  0
  -87.4244   29.8658   -0.3603 N   0  0  0  0  0  0  0  0  0  0  0  0
  -86.4706   30.8242   -0.2464 C   0  0  0  0  0  0  0  0  0  0  0  0
  -87.0039   31.9532   -0.8272 C   0  0  0  0  0  0  0  0  0  0  0  0
  -86.2454   33.1217   -0.8629 C   0  0  0  0  0  0  0  0  0  0  0  0
  -85.0158   33.0928   -0.3233 N   0  0  0  0  0  0  0  0  0  0  0  0
  -84.4684   32.0093    0.2494 C   0  0  0  0  0  0  0  0  0  0  0  0
  -83.1769   32.0630    0.7900 C   0  0  0  0  0  0  0  0  0  0  0  0
  -82.6453   30.9354    1.3696 C   0  0  0  0  0  0  0  0  0  0  0  0
  -83.4036   29.7692    1.4047 C   0  0  0  0  0  0  0  0  0  0  0  0
  -84.6729   29.7114    0.8751 C   0  0  0  0  0  0  0  0  0  0  0  0
  -85.2030   30.8439    0.2945 C   0  0  0  0  0  0  0  0  0  0  0  0
  -88.2620   31.6478   -1.2752 C   0  0  0  0  0  0  0  0  0  0  0  0
  -89.0710   32.4122   -1.8617 O   0  0  0  0  0  0  0  0  0  0  0  0
  -87.2692   28.8957    0.0081 H   0  0  0  0  0  0  0  0  0  0  0  0
  -92.0475   28.2160   -1.8444 C   0  0  0  0  0  0  0  0  0  0  0  0
  -91.8725   28.8602   -0.6343 C   0  0  0  0  0  0  0  0  0  0  0  0
  -90.7162   29.5523   -0.3554 C   0  0  0  0  0  0  0  0  0  0  0  0
  -89.6807   29.6375   -1.2629 C   0  0  0  0  0  0  0  0  0  0  0  0
  -89.8635   28.9878   -2.4764 C   0  0  0  0  0  0  0  0  0  0  0  0
  -91.0211   28.2928   -2.7604 C   0  0  0  0  0  0  0  0  0  0  0  0
  -94.1980   28.0235   -3.0117 C   0  0  0  0  0  0  0  0  0  0  0  0
  -93.2203   27.5101   -2.1359 O   0  0  0  0  0  0  0  0  0  0  0  0
 22 23  1  0  0  0
 23 16  1  0  0  0
 16 17  2  0  0  0
 17 18  1  0  0  0
 18 19  2  0  0  0
 19 20  1  0  0  0
 20 21  2  0  0  0
 19  1  1  0  0  0
  1  2  1  0  0  0
  2  3  1  0  0  0
  3  4  2  0  0  0
  4  5  1  0  0  0
  5  6  2  0  0  0
  6  7  1  0  0  0
  7  8  2  0  0  0
  8  9  1  0  0  0
  9 10  2  0  0  0
 10 11  1  0  0  0
 11 12  2  0  0  0
  4 13  1  0  0  0
 13 14  2  0  0  0
 21 16  1  0  0  0
 13  1  1  0  0  0
 12  3  1  0  0  0
 12  7  1  0  0  0
  2 15  1  0  0  0
M  END
> <minimizedAffinity>
-7.63740

> <CNNscore>
0.2565802336

> <CNNaffinity>
5.8089799881

> <CNN_VS>
1.4904694557

> <CNNaffinity_variance>
0.2404770851

$$$$
[H]c1c([H])c(-n2c(=O)c3c([H])nc4c([H])c([H])c([H])c([H])c4c3n2[H])c([H])c([H])c1OC([H])([H])[H]


 23 26  0  0  0  0  0  0  0  0999 V2000
  -87.4869   27.7856    1.2363 N   0  0  0  0  0  0  0  0  0  0  0  0
  -87.7317   28.9374    0.6450 N   0  0  0  0  0  0  0  0  0  0  0  0
  -86.5967   29.6786    0.5837 C   0  0  0  0  0  0  0  0  0  0  0  0
  -85.6180   28.9136    1.1781 C   0  0  0  0  0  0  0  0  0  0  0  0
  -84.3217   29.4175    1.2660 C   0  0  0  0  0  0  0  0  0  0  0  0
  -84.0839   30.6393    0.7616 N   0  0  0  0  0  0  0  0  0  0  0  0
  -85.0154   31.4087    0.1769 C   0  0  0  0  0  0  0  0  0  0  0  0
  -84.6841   32.6743   -0.3246 C   0  0  0  0  0  0  0  0  0  0  0  0
  -85.6618   33.4375   -0.9177 C   0  0  0  0  0  0  0  0  0  0  0  0
  -86.9558   32.9333   -1.0050 C   0  0  0  0  0  0  0  0  0  0  0  0
  -87.2862   31.6905   -0.5140 C   0  0  0  0  0  0  0  0  0  0  0  0
  -86.3035   30.9279    0.0803 C   0  0  0  0  0  0  0  0  0  0  0  0
  -86.1860   27.7340    1.5815 C   0  0  0  0  0  0  0  0  0  0  0  0
  -85.6202   26.7732    2.1640 O   0  0  0  0  0  0  0  0  0  0  0  0
  -88.6381   29.2952    0.2561 H   0  0  0  0  0  0  0  0  0  0  0  0
  -90.3299   24.7136    1.9516 C   0  0  0  0  0  0  0  0  0  0  0  0
  -89.7580   24.8904    0.7058 C   0  0  0  0  0  0  0  0  0  0  0  0
  -88.8370   25.8874    0.4788 C   0  0  0  0  0  0  0  0  0  0  0  0
  -88.4408   26.7546    1.4758 C   0  0  0  0  0  0  0  0  0  0  0  0
  -89.0195   26.5712    2.7246 C   0  0  0  0  0  0  0  0  0  0  0  0
  -89.9432   25.5729    2.9568 C   0  0  0  0  0  0  0  0  0  0  0  0
  -91.7435   22.8713    1.1569 C   0  0  0  0  0  0  0  0  0  0  0  0
  -91.2671   23.7023    2.1908 O   0  0  0  0  0  0  0  0  0  0  0  0
 22 23  1  0  0  0
 23 16  1  0  0  0
 16 17  2  0  0  0
 17 18  1  0  0  0
 18 19  2  0  0  0
 19 20  1  0  0  0
 20 21  2  0  0  0
 19  1  1  0  0  0
  1  2  1  0  0  0
  2  3  1  0  0  0
  3  4  2  0  0  0
  4  5  1  0  0  0
  5  6  2  0  0  0
  6  7  1  0  0  0
  7  8  2  0  0  0
  8  9  1  0  0  0
  9 10  2  0  0  0
 10 11  1  0  0  0
 11 12  2  0  0  0
  4 13  1  0  0  0
 13 14  2  0  0  0
 21 16  1  0  0  0
 13  1  1  0  0  0
 12  3  1  0  0  0
 12  7  1  0  0  0
  2 15  1  0  0  0
M  END
> <minimizedAffinity>
-7.87240

> <CNNscore>
0.2305914313

> <CNNaffinity>
5.8644251823

> <CNN_VS>
1.3522862196

> <CNNaffinity_variance>
0.4073086679

$$$$
[H]c1c([H])c(-n2c(=O)c3c([H])nc4c([H])c([H])c([H])c([H])c4c3n2[H])c([H])c([H])c1OC([H])([H])[H]


 23 26  0  0  0  0  0  0  0  0999 V2000
  -87.5564   31.1093   -1.4095 N   0  0  0  0  0  0  0  0  0  0  0  0
  -87.2231   30.0328   -0.7265 N   0  0  0  0  0  0  0  0  0  0  0  0
  -86.1082   30.2754    0.0080 C   0  0  0  0  0  0  0  0  0  0  0  0
  -85.7610   31.5809   -0.2595 C   0  0  0  0  0  0  0  0  0  0  0  0
  -84.6375   32.1255    0.3595 C   0  0  0  0  0  0  0  0  0  0  0  0
  -83.9374   31.3437    1.1976 N   0  0  0  0  0  0  0  0  0  0  0  0
  -84.2498   30.0689    1.4786 C   0  0  0  0  0  0  0  0  0  0  0  0
  -83.4654   29.3205    2.3661 C   0  0  0  0  0  0  0  0  0  0  0  0
  -83.8126   28.0172    2.6325 C   0  0  0  0  0  0  0  0  0  0  0  0
  -84.9346   27.4745    2.0138 C   0  0  0  0  0  0  0  0  0  0  0  0
  -85.7085   28.2056    1.1412 C   0  0  0  0  0  0  0  0  0  0  0  0
  -85.3575   29.5122    0.8762 C   0  0  0  0  0  0  0  0  0  0  0  0
  -86.6727   32.0909   -1.1458 C   0  0  0  0  0  0  0  0  0  0  0  0
  -86.6989   33.2504   -1.6330 O   0  0  0  0  0  0  0  0  0  0  0  0
  -87.6981   29.0976   -0.7038 H   0  0  0  0  0  0  0  0  0  0  0  0
  -90.8799   31.4509   -4.0304 C   0  0  0  0  0  0  0  0  0  0  0  0
  -91.0462   31.3931   -2.6595 C   0  0  0  0  0  0  0  0  0  0  0  0
  -89.9660   31.2824   -1.8141 C   0  0  0  0  0  0  0  0  0  0  0  0
  -88.6719   31.2239   -2.2885 C   0  0  0  0  0  0  0  0  0  0  0  0
  -88.5125   31.2825   -3.6666 C   0  0  0  0  0  0  0  0  0  0  0  0
  -89.5926   31.3935   -4.5181 C   0  0  0  0  0  0  0  0  0  0  0  0
  -92.7111   30.4369   -5.3120 C   0  0  0  0  0  0  0  0  0  0  0  0
  -91.9730   31.5635   -4.8970 O   0  0  0  0  0  0  0  0  0  0  0  0
 22 23  1  0  0  0
 23 16  1  0  0  0
 16 17  2  0  0  0
 17 18  1  0  0  0
 18 19  2  0  0  0
 19 20  1  0  0  0
 20 21  2  0  0  0
 19  1  1  0  0  0
  1  2  1  0  0  0
  2  3  1  0  0  0
  3  4  2  0  0  0
  4  5  1  0  0  0
  5  6  2  0  0  0
  6  7  1  0  0  0
  7  8  2  0  0  0
  8  9  1  0  0  0
  9 10  2  0  0  0
 10 11  1  0  0  0
 11 12  2  0  0  0
  4 13  1  0  0  0
 13 14  2  0  0  0
 21 16  1  0  0  0
 13  1  1  0  0  0
 12  3  1  0  0  0
 12  7  1  0  0  0
  2 15  1  0  0  0
M  END
> <minimizedAffinity>
-7.84306

> <CNNscore>
0.2182267457

> <CNNaffinity>
5.7474527359

> <CNN_VS>
1.2542479038

> <CNNaffinity_variance>
0.3305621147

$$$$
[H]c1c([H])c(-c2c([H])c([H])c(-c3nc(=O)n([H])o3)c([H])c2C#N)c([H])c([H])c1C(=O)N(C([H])([H])[H])C([H])([H])[H]


 26 28  0  0  0  0  0  0  0  0999 V2000
  -86.2152   31.5393   -0.4803 C   0  0  0  0  0  0  0  0  0  0  0  0
  -86.8172   30.3436   -0.0928 C   0  0  0  0  0  0  0  0  0  0  0  0
  -86.1144   29.4543    0.6683 C   0  0  0  0  0  0  0  0  0  0  0  0
  -84.8201   29.6604    1.0909 C   0  0  0  0  0  0  0  0  0  0  0  0
  -84.2436   30.8450    0.6990 C   0  0  0  0  0  0  0  0  0  0  0  0
  -84.9286   31.7843   -0.0810 C   0  0  0  0  0  0  0  0  0  0  0  0
  -84.1237   28.6687    1.9033 C   0  0  0  0  0  0  0  0  0  0  0  0
  -82.8041   28.3999    1.8599 N   0  0  0  0  0  0  0  0  0  0  0  0
  -82.5240   27.4440    2.7341 C   0  0  0  0  0  0  0  0  0  0  0  0
  -81.3694   26.9456    2.9550 O   0  0  0  0  0  0  0  0  0  0  0  0
  -83.6824   27.1153    3.3272 N   0  0  0  0  0  0  0  0  0  0  0  0
  -84.6050   27.8624    2.8078 O   0  0  0  0  0  0  0  0  0  0  0  0
  -83.7441   26.3805    4.0637 H   0  0  0  0  0  0  0  0  0  0  0  0
  -88.3869   34.3498   -2.8442 C   0  0  0  0  0  0  0  0  0  0  0  0
  -87.0571   34.0840   -3.0798 C   0  0  0  0  0  0  0  0  0  0  0  0
  -86.3326   33.1683   -2.3227 C   0  0  0  0  0  0  0  0  0  0  0  0
  -86.9364   32.4961   -1.3049 C   0  0  0  0  0  0  0  0  0  0  0  0
  -88.2624   32.7509   -1.0588 C   0  0  0  0  0  0  0  0  0  0  0  0
  -88.9981   33.6483   -1.7905 C   0  0  0  0  0  0  0  0  0  0  0  0
  -88.1367   37.5644   -3.1803 C   0  0  0  0  0  0  0  0  0  0  0  0
  -89.0816   36.6412   -3.7368 N   0  0  0  0  0  0  0  0  0  0  0  0
  -90.0959   37.3354   -4.6158 C   0  0  0  0  0  0  0  0  0  0  0  0
  -89.1718   35.2735   -3.5801 C   0  0  0  0  0  0  0  0  0  0  0  0
  -90.1839   34.7473   -4.2475 O   0  0  0  0  0  0  0  0  0  0  0  0
  -84.2548   33.0237   -0.4411 C   0  0  0  0  0  0  0  0  0  0  0  0
  -83.7282   34.0296   -0.7135 N   0  0  0  0  0  0  0  0  0  0  0  0
 20 21  1  0  0  0
 21 22  1  0  0  0
 21 23  1  0  0  0
 23 24  2  0  0  0
 23 14  1  0  0  0
 14 15  2  0  0  0
 15 16  1  0  0  0
 16 17  2  0  0  0
 17 18  1  0  0  0
 18 19  2  0  0  0
 17  1  1  0  0  0
  1  2  2  0  0  0
  2  3  1  0  0  0
  3  4  2  0  0  0
  4  5  1  0  0  0
  5  6  2  0  0  0
  6 25  1  0  0  0
 25 26  3  0  0  0
  4  7  1  0  0  0
  7  8  2  0  0  0
  8  9  1  0  0  0
  9 10  2  0  0  0
  9 11  1  0  0  0
 11 12  1  0  0  0
 19 14  1  0  0  0
  6  1  1  0  0  0
 12  7  1  0  0  0
 11 13  1  0  0  0
M  END
> <minimizedAffinity>
-7.34075

> <CNNscore>
0.8554223776

> <CNNaffinity>
6.4388289452

> <CNN_VS>
5.5079183578

> <CNNaffinity_variance>
0.1851526201

$$$$
[H]c1c([H])c(-c2c([H])c([H])c(-c3nc(=O)n([H])o3)c([H])c2C#N)c([H])c([H])c1C(=O)N(C([H])([H])[H])C([H])([H])[H]


 26 28  0  0  0  0  0  0  0  0999 V2000
  -86.9313   31.9780   -1.5563 C   0  0  0  0  0  0  0  0  0  0  0  0
  -85.9446   32.5727   -0.7721 C   0  0  0  0  0  0  0  0  0  0  0  0
  -85.1803   31.7944    0.0490 C   0  0  0  0  0  0  0  0  0  0  0  0
  -85.3190   30.4289    0.1602 C   0  0  0  0  0  0  0  0  0  0  0  0
  -86.2969   29.8608   -0.6209 C   0  0  0  0  0  0  0  0  0  0  0  0
  -87.1023   30.6218   -1.4765 C   0  0  0  0  0  0  0  0  0  0  0  0
  -84.4695   29.6538    1.0579 C   0  0  0  0  0  0  0  0  0  0  0  0
  -84.7960   28.4812    1.6359 N   0  0  0  0  0  0  0  0  0  0  0  0
  -83.7846   28.0671    2.3855 C   0  0  0  0  0  0  0  0  0  0  0  0
  -83.7537   26.9927    3.0747 O   0  0  0  0  0  0  0  0  0  0  0  0
  -82.8190   28.9927    2.2721 N   0  0  0  0  0  0  0  0  0  0  0  0
  -83.2632   29.9153    1.4780 O   0  0  0  0  0  0  0  0  0  0  0  0
  -81.9053   28.9101    2.7664 H   0  0  0  0  0  0  0  0  0  0  0  0
  -89.3559   34.3184   -4.1730 C   0  0  0  0  0  0  0  0  0  0  0  0
  -89.6921   34.1326   -2.8512 C   0  0  0  0  0  0  0  0  0  0  0  0
  -88.9127   33.3764   -1.9811 C   0  0  0  0  0  0  0  0  0  0  0  0
  -87.7700   32.7867   -2.4270 C   0  0  0  0  0  0  0  0  0  0  0  0
  -87.4221   32.9637   -3.7428 C   0  0  0  0  0  0  0  0  0  0  0  0
  -88.1732   33.7043   -4.6201 C   0  0  0  0  0  0  0  0  0  0  0  0
  -91.8310   33.4754   -6.0894 C   0  0  0  0  0  0  0  0  0  0  0  0
  -91.1680   34.7357   -5.9258 N   0  0  0  0  0  0  0  0  0  0  0  0
  -91.7655   35.8051   -6.8106 C   0  0  0  0  0  0  0  0  0  0  0  0
  -90.1131   35.0743   -5.1036 C   0  0  0  0  0  0  0  0  0  0  0  0
  -89.7586   36.3420   -5.2213 O   0  0  0  0  0  0  0  0  0  0  0  0
  -88.1056   29.9437   -2.2849 C   0  0  0  0  0  0  0  0  0  0  0  0
  -88.9214   29.3926   -2.9125 N   0  0  0  0  0  0  0  0  0  0  0  0
 20 21  1  0  0  0
 21 22  1  0  0  0
 21 23  1  0  0  0
 23 24  2  0  0  0
 23 14  1  0  0  0
 14 15  2  0  0  0
 15 16  1  0  0  0
 16 17  2  0  0  0
 17 18  1  0  0  0
 18 19  2  0  0  0
 17  1  1  0  0  0
  1  2  2  0  0  0
  2  3  1  0  0  0
  3  4  2  0  0  0
  4  5  1  0  0  0
  5  6  2  0  0  0
  6 25  1  0  0  0
 25 26  3  0  0  0
  4  7  1  0  0  0
  7  8  2  0  0  0
  8  9  1  0  0  0
  9 10  2  0  0  0
  9 11  1  0  0  0
 11 12  1  0  0  0
 19 14  1  0  0  0
  6  1  1  0  0  0
 12  7  1  0  0  0
 11 13  1  0  0  0
M  END
> <minimizedAffinity>
-7.68670

> <CNNscore>
0.3635775149

> <CNNaffinity>
5.8411121368

> <CNN_VS>
2.1236970425

> <CNNaffinity_variance>
0.1247197837

$$$$
[H]c1c([H])c(-c2c([H])c([H])c(-c3nc(=O)n([H])o3)c([H])c2C#N)c([H])c([H])c1C(=O)N(C([H])([H])[H])C([H])([H])[H]


 26 28  0  0  0  0  0  0  0  0999 V2000
  -87.4496   31.5660   -1.7475 C   0  0  0  0  0  0  0  0  0  0  0  0
  -87.9065   30.2528   -1.8432 C   0  0  0  0  0  0  0  0  0  0  0  0
  -87.4056   29.3047   -0.9980 C   0  0  0  0  0  0  0  0  0  0  0  0
  -86.4569   29.5606   -0.0332 C   0  0  0  0  0  0  0  0  0  0  0  0
  -86.0191   30.8611    0.0460 C   0  0  0  0  0  0  0  0  0  0  0  0
  -86.5064   31.8638   -0.8007 C   0  0  0  0  0  0  0  0  0  0  0  0
  -85.9620   28.5014    0.8394 C   0  0  0  0  0  0  0  0  0  0  0  0
  -84.8114   28.5302    1.5400 N   0  0  0  0  0  0  0  0  0  0  0  0
  -84.6859   27.3999    2.2205 C   0  0  0  0  0  0  0  0  0  0  0  0
  -83.7140   27.0922    2.9893 O   0  0  0  0  0  0  0  0  0  0  0  0
  -85.7706   26.6607    1.9396 N   0  0  0  0  0  0  0  0  0  0  0  0
  -86.5011   27.3476    1.1189 O   0  0  0  0  0  0  0  0  0  0  0  0
  -85.9230   25.7145    2.3490 H   0  0  0  0  0  0  0  0  0  0  0  0
  -88.9678   34.6082   -4.3249 C   0  0  0  0  0  0  0  0  0  0  0  0
  -87.9257   33.7936   -4.7059 C   0  0  0  0  0  0  0  0  0  0  0  0
  -87.4192   32.7934   -3.8815 C   0  0  0  0  0  0  0  0  0  0  0  0
  -87.9550   32.5913   -2.6469 C   0  0  0  0  0  0  0  0  0  0  0  0
  -88.9950   33.3960   -2.2538 C   0  0  0  0  0  0  0  0  0  0  0  0
  -89.5120   34.3883   -3.0476 C   0  0  0  0  0  0  0  0  0  0  0  0
  -90.8861   34.4935   -6.9356 C   0  0  0  0  0  0  0  0  0  0  0  0
  -90.3380   35.6158   -6.2321 N   0  0  0  0  0  0  0  0  0  0  0  0
  -90.7607   36.9284   -6.8498 C   0  0  0  0  0  0  0  0  0  0  0  0
  -89.5206   35.6434   -5.1210 C   0  0  0  0  0  0  0  0  0  0  0  0
  -89.2068   36.8712   -4.7465 O   0  0  0  0  0  0  0  0  0  0  0  0
  -86.0049   33.2216   -0.6430 C   0  0  0  0  0  0  0  0  0  0  0  0
  -85.5952   34.3047   -0.4939 N   0  0  0  0  0  0  0  0  0  0  0  0
 20 21  1  0  0  0
 21 22  1  0  0  0
 21 23  1  0  0  0
 23 24  2  0  0  0
 23 14  1  0  0  0
 14 15  2  0  0  0
 15 16  1  0  0  0
 16 17  2  0  0  0
 17 18  1  0  0  0
 18 19  2  0  0  0
 17  1  1  0  0  0
  1  2  2  0  0  0
  2  3  1  0  0  0
  3  4  2  0  0  0
  4  5  1  0  0  0
  5  6  2  0  0  0
  6 25  1  0  0  0
 25 26  3  0  0  0
  4  7  1  0  0  0
  7  8  2  0  0  0
  8  9  1  0  0  0
  9 10  2  0  0  0
  9 11  1  0  0  0
 11 12  1  0  0  0
 19 14  1  0  0  0
  6  1  1  0  0  0
 12  7  1  0  0  0
 11 13  1  0  0  0
M  END
> <minimizedAffinity>
-7.24300

> <CNNscore>
0.2785401344

> <CNNaffinity>
5.7069859505

> <CNN_VS>
1.5896246433

> <CNNaffinity_variance>
0.3083913922

$$$$
[H]c1c([H])c(-c2c([H])c([H])c(-c3nc(=O)n([H])o3)c([H])c2C#N)c([H])c([H])c1C(=O)N(C([H])([H])[H])C([H])([H])[H]


 26 28  0  0  0  0  0  0  0  0999 V2000
  -87.1470   31.9896   -1.4255 C   0  0  0  0  0  0  0  0  0  0  0  0
  -86.3410   32.1978   -0.3079 C   0  0  0  0  0  0  0  0  0  0  0  0
  -85.9159   31.1252    0.4221 C   0  0  0  0  0  0  0  0  0  0  0  0
  -86.2354   29.8191    0.1247 C   0  0  0  0  0  0  0  0  0  0  0  0
  -87.0307   29.6341   -0.9810 C   0  0  0  0  0  0  0  0  0  0  0  0
  -87.4880   30.7057   -1.7571 C   0  0  0  0  0  0  0  0  0  0  0  0
  -85.7486   28.7164    0.9465 C   0  0  0  0  0  0  0  0  0  0  0  0
  -84.5882   28.6956    1.6310 N   0  0  0  0  0  0  0  0  0  0  0  0
  -84.4747   27.5365    2.2633 C   0  0  0  0  0  0  0  0  0  0  0  0
  -83.4983   27.1800    3.0050 O   0  0  0  0  0  0  0  0  0  0  0  0
  -85.5768   26.8291    1.9685 N   0  0  0  0  0  0  0  0  0  0  0  0
  -86.3054   27.5621    1.1868 O   0  0  0  0  0  0  0  0  0  0  0  0
  -85.7414   25.8700    2.3414 H   0  0  0  0  0  0  0  0  0  0  0  0
  -88.4889   35.2907   -3.7718 C   0  0  0  0  0  0  0  0  0  0  0  0
  -89.3507   34.5789   -2.9685 C   0  0  0  0  0  0  0  0  0  0  0  0
  -88.9318   33.5021   -2.1930 C   0  0  0  0  0  0  0  0  0  0  0  0
  -87.6267   33.1163   -2.2104 C   0  0  0  0  0  0  0  0  0  0  0  0
  -86.7559   33.8173   -3.0067 C   0  0  0  0  0  0  0  0  0  0  0  0
  -87.1440   34.8820   -3.7800 C   0  0  0  0  0  0  0  0  0  0  0  0
  -88.2150   38.4842   -3.2860 C   0  0  0  0  0  0  0  0  0  0  0  0
  -88.7521   37.7545   -4.3968 N   0  0  0  0  0  0  0  0  0  0  0  0
  -89.2504   38.6749   -5.4867 C   0  0  0  0  0  0  0  0  0  0  0  0
  -88.8608   36.3920   -4.5841 C   0  0  0  0  0  0  0  0  0  0  0  0
  -89.4174   36.0769   -5.7406 O   0  0  0  0  0  0  0  0  0  0  0  0
  -88.3131   30.4264   -2.9238 C   0  0  0  0  0  0  0  0  0  0  0  0
  -88.9798   30.1802   -3.8501 N   0  0  0  0  0  0  0  0  0  0  0  0
 20 21  1  0  0  0
 21 22  1  0  0  0
 21 23  1  0  0  0
 23 24  2  0  0  0
 23 14  1  0  0  0
 14 15  2  0  0  0
 15 16  1  0  0  0
 16 17  2  0  0  0
 17 18  1  0  0  0
 18 19  2  0  0  0
 17  1  1  0  0  0
  1  2  2  0  0  0
  2  3  1  0  0  0
  3  4  2  0  0  0
  4  5  1  0  0  0
  5  6  2  0  0  0
  6 25  1  0  0  0
 25 26  3  0  0  0
  4  7  1  0  0  0
  7  8  2  0  0  0
  8  9  1  0  0  0
  9 10  2  0  0  0
  9 11  1  0  0  0
 11 12  1  0  0  0
 19 14  1  0  0  0
  6  1  1  0  0  0
 12  7  1  0  0  0
 11 13  1  0  0  0
M  END
> <minimizedAffinity>
-8.17675

> <CNNscore>
0.2438069284

> <CNNaffinity>
5.6137557030

> <CNN_VS>
1.3686724901

> <CNNaffinity_variance>
0.1049773246

$$$$
[H]c1c([H])c(-c2c([H])c([H])c(-c3nc(=O)n([H])o3)c([H])c2C#N)c([H])c([H])c1C(=O)N(C([H])([H])[H])C([H])([H])[H]


 26 28  0  0  0  0  0  0  0  0999 V2000
  -87.0856   32.0226   -1.4357 C   0  0  0  0  0  0  0  0  0  0  0  0
  -86.3070   32.2290   -0.2984 C   0  0  0  0  0  0  0  0  0  0  0  0
  -85.8917   31.1546    0.4345 C   0  0  0  0  0  0  0  0  0  0  0  0
  -86.1954   29.8483    0.1217 C   0  0  0  0  0  0  0  0  0  0  0  0
  -86.9636   29.6651   -1.0032 C   0  0  0  0  0  0  0  0  0  0  0  0
  -87.4102   30.7386   -1.7830 C   0  0  0  0  0  0  0  0  0  0  0  0
  -85.7202   28.7436    0.9476 C   0  0  0  0  0  0  0  0  0  0  0  0
  -84.5590   28.7123    1.6304 N   0  0  0  0  0  0  0  0  0  0  0  0
  -84.4580   27.5548    2.2677 C   0  0  0  0  0  0  0  0  0  0  0  0
  -83.4847   27.1902    3.0094 O   0  0  0  0  0  0  0  0  0  0  0  0
  -85.5689   26.8591    1.9778 N   0  0  0  0  0  0  0  0  0  0  0  0
  -86.2901   27.5971    1.1940 O   0  0  0  0  0  0  0  0  0  0  0  0
  -85.7441   25.9037    2.3553 H   0  0  0  0  0  0  0  0  0  0  0  0
  -88.5280   35.3335   -3.7074 C   0  0  0  0  0  0  0  0  0  0  0  0
  -87.1960   34.9863   -3.7040 C   0  0  0  0  0  0  0  0  0  0  0  0
  -86.7068   33.9079   -2.9731 C   0  0  0  0  0  0  0  0  0  0  0  0
  -87.5547   33.1510   -2.2244 C   0  0  0  0  0  0  0  0  0  0  0  0
  -88.8858   33.4854   -2.2186 C   0  0  0  0  0  0  0  0  0  0  0  0
  -89.3926   34.5431   -2.9304 C   0  0  0  0  0  0  0  0  0  0  0  0
  -89.8940   35.4679   -6.6443 C   0  0  0  0  0  0  0  0  0  0  0  0
  -89.6659   36.4999   -5.6759 N   0  0  0  0  0  0  0  0  0  0  0  0
  -90.1678   37.8422   -6.1550 C   0  0  0  0  0  0  0  0  0  0  0  0
  -89.0803   36.4221   -4.4291 C   0  0  0  0  0  0  0  0  0  0  0  0
  -89.0359   37.5890   -3.8105 O   0  0  0  0  0  0  0  0  0  0  0  0
  -88.2062   30.4612   -2.9701 C   0  0  0  0  0  0  0  0  0  0  0  0
  -88.8246   30.2295   -3.9330 N   0  0  0  0  0  0  0  0  0  0  0  0
 20 21  1  0  0  0
 21 22  1  0  0  0
 21 23  1  0  0  0
 23 24  2  0  0  0
 23 14  1  0  0  0
 14 15  2  0  0  0
 15 16  1  0  0  0
 16 17  2  0  0  0
 17 18  1  0  0  0
 18 19  2  0  0  0
 17  1  1  0  0  0
  1  2  2  0  0  0
  2  3  1  0  0  0
  3  4  2  0  0  0
  4  5  1  0  0  0
  5  6  2  0  0  0
  6 25  1  0  0  0
 25 26  3  0  0  0
  4  7  1  0  0  0
  7  8  2  0  0  0
  8  9  1  0  0  0
  9 10  2  0  0  0
  9 11  1  0  0  0
 11 12  1  0  0  0
 19 14  1  0  0  0
  6  1  1  0  0  0
 12  7  1  0  0  0
 11 13  1  0  0  0
M  END
> <minimizedAffinity>
-8.13157

> <CNNscore>
0.2422448248

> <CNNaffinity>
5.5844430923

> <CNN_VS>
1.3528023958

> <CNNaffinity_variance>
0.1005439907

$$$$
[H]c1c([H])c(-c2c([H])c([H])c(-c3nc(=O)n([H])o3)c([H])c2C#N)c([H])c([H])c1C(=O)N(C([H])([H])[H])C([H])([H])[H]


 26 28  0  0  0  0  0  0  0  0999 V2000
  -88.5788   32.1697   -2.2142 C   0  0  0  0  0  0  0  0  0  0  0  0
  -89.5651   31.2087   -2.4284 C   0  0  0  0  0  0  0  0  0  0  0  0
  -89.6061   30.1002   -1.6324 C   0  0  0  0  0  0  0  0  0  0  0  0
  -88.7195   29.8584   -0.6068 C   0  0  0  0  0  0  0  0  0  0  0  0
  -87.7545   30.8175   -0.4109 C   0  0  0  0  0  0  0  0  0  0  0  0
  -87.6769   31.9686   -1.2038 C   0  0  0  0  0  0  0  0  0  0  0  0
  -88.8175   28.6523    0.2079 C   0  0  0  0  0  0  0  0  0  0  0  0
  -87.8391   28.1410    0.9806 N   0  0  0  0  0  0  0  0  0  0  0  0
  -88.2812   27.0422    1.5751 C   0  0  0  0  0  0  0  0  0  0  0  0
  -87.6155   26.3047    2.3772 O   0  0  0  0  0  0  0  0  0  0  0  0
  -89.5483   26.8687    1.1673 N   0  0  0  0  0  0  0  0  0  0  0  0
  -89.8280   27.8423    0.3593 O   0  0  0  0  0  0  0  0  0  0  0  0
  -90.1342   26.0692    1.4891 H   0  0  0  0  0  0  0  0  0  0  0  0
  -88.3864   35.6794   -4.6325 C   0  0  0  0  0  0  0  0  0  0  0  0
  -87.6840   34.5407   -4.9563 C   0  0  0  0  0  0  0  0  0  0  0  0
  -87.7367   33.3851   -4.1828 C   0  0  0  0  0  0  0  0  0  0  0  0
  -88.5032   33.3515   -3.0587 C   0  0  0  0  0  0  0  0  0  0  0  0
  -89.2094   34.4798   -2.7238 C   0  0  0  0  0  0  0  0  0  0  0  0
  -89.1742   35.6308   -3.4695 C   0  0  0  0  0  0  0  0  0  0  0  0
  -86.0289   37.8530   -5.1095 C   0  0  0  0  0  0  0  0  0  0  0  0
  -87.3766   37.8198   -5.5967 N   0  0  0  0  0  0  0  0  0  0  0  0
  -87.6887   39.0122   -6.4707 C   0  0  0  0  0  0  0  0  0  0  0  0
  -88.3671   36.8840   -5.3806 C   0  0  0  0  0  0  0  0  0  0  0  0
  -89.4988   37.1855   -5.9927 O   0  0  0  0  0  0  0  0  0  0  0  0
  -86.6356   32.9466   -0.9224 C   0  0  0  0  0  0  0  0  0  0  0  0
  -85.7848   33.7173   -0.7097 N   0  0  0  0  0  0  0  0  0  0  0  0
 20 21  1  0  0  0
 21 22  1  0  0  0
 21 23  1  0  0  0
 23 24  2  0  0  0
 23 14  1  0  0  0
 14 15  2  0  0  0
 15 16  1  0  0  0
 16 17  2  0  0  0
 17 18  1  0  0  0
 18 19  2  0  0  0
 17  1  1  0  0  0
  1  2  2  0  0  0
  2  3  1  0  0  0
  3  4  2  0  0  0
  4  5  1  0  0  0
  5  6  2  0  0  0
  6 25  1  0  0  0
 25 26  3  0  0  0
  4  7  1  0  0  0
  7  8  2  0  0  0
  8  9  1  0  0  0
  9 10  2  0  0  0
  9 11  1  0  0  0
 11 12  1  0  0  0
 19 14  1  0  0  0
  6  1  1  0  0  0
 12  7  1  0  0  0
 11 13  1  0  0  0
M  END
> <minimizedAffinity>
-6.31265

> <CNNscore>
0.2277556509

> <CNNaffinity>
5.3945169449

> <CNN_VS>
1.2286317348

> <CNNaffinity_variance>
0.5038646460

$$$$
[H]c1c([H])c(-c2c([H])c([H])c(-c3nc(=O)n([H])o3)c([H])c2C#N)c([H])c([H])c1C(=O)N(C([H])([H])[H])C([H])([H])[H]


 26 28  0  0  0  0  0  0  0  0999 V2000
  -88.5293   32.5933   -2.8842 C   0  0  0  0  0  0  0  0  0  0  0  0
  -88.4085   31.2913   -2.4022 C   0  0  0  0  0  0  0  0  0  0  0  0
  -87.5077   31.0232   -1.4119 C   0  0  0  0  0  0  0  0  0  0  0  0
  -86.6892   31.9723   -0.8412 C   0  0  0  0  0  0  0  0  0  0  0  0
  -86.8230   33.2501   -1.3294 C   0  0  0  0  0  0  0  0  0  0  0  0
  -87.7342   33.5682   -2.3436 C   0  0  0  0  0  0  0  0  0  0  0  0
  -85.7461   31.6202    0.2147 C   0  0  0  0  0  0  0  0  0  0  0  0
  -85.8350   30.5481    1.0261 N   0  0  0  0  0  0  0  0  0  0  0  0
  -84.8069   30.5465    1.8622 C   0  0  0  0  0  0  0  0  0  0  0  0
  -84.5779   29.6747    2.7666 O   0  0  0  0  0  0  0  0  0  0  0  0
  -84.0708   31.6296    1.5671 N   0  0  0  0  0  0  0  0  0  0  0  0
  -84.6602   32.2386    0.5868 O   0  0  0  0  0  0  0  0  0  0  0  0
  -83.1962   31.8676    2.0813 H   0  0  0  0  0  0  0  0  0  0  0  0
  -91.3462   33.4975   -5.9584 C   0  0  0  0  0  0  0  0  0  0  0  0
  -89.9965   33.7039   -6.1330 C   0  0  0  0  0  0  0  0  0  0  0  0
  -89.0618   33.4118   -5.1443 C   0  0  0  0  0  0  0  0  0  0  0  0
  -89.4696   32.9021   -3.9501 C   0  0  0  0  0  0  0  0  0  0  0  0
  -90.8126   32.6907   -3.7620 C   0  0  0  0  0  0  0  0  0  0  0  0
  -91.7534   32.9703   -4.7206 C   0  0  0  0  0  0  0  0  0  0  0  0
  -92.1579   36.2680   -7.4332 C   0  0  0  0  0  0  0  0  0  0  0  0
  -92.7014   34.9484   -7.5673 N   0  0  0  0  0  0  0  0  0  0  0  0
  -93.8265   34.9028   -8.5749 C   0  0  0  0  0  0  0  0  0  0  0  0
  -92.3417   33.7799   -6.9280 C   0  0  0  0  0  0  0  0  0  0  0  0
  -93.0728   32.7450   -7.3031 O   0  0  0  0  0  0  0  0  0  0  0  0
  -87.8288   34.9491   -2.7953 C   0  0  0  0  0  0  0  0  0  0  0  0
  -87.9288   36.0535   -3.1606 N   0  0  0  0  0  0  0  0  0  0  0  0
 20 21  1  0  0  0
 21 22  1  0  0  0
 21 23  1  0  0  0
 23 24  2  0  0  0
 23 14  1  0  0  0
 14 15  2  0  0  0
 15 16  1  0  0  0
 16 17  2  0  0  0
 17 18  1  0  0  0
 18 19  2  0  0  0
 17  1  1  0  0  0
  1  2  2  0  0  0
  2  3  1  0  0  0
  3  4  2  0  0  0
  4  5  1  0  0  0
  5  6  2  0  0  0
  6 25  1  0  0  0
 25 26  3  0  0  0
  4  7  1  0  0  0
  7  8  2  0  0  0
  8  9  1  0  0  0
  9 10  2  0  0  0
  9 11  1  0  0  0
 11 12  1  0  0  0
 19 14  1  0  0  0
  6  1  1  0  0  0
 12  7  1  0  0  0
 11 13  1  0  0  0
M  END
> <minimizedAffinity>
-6.25143

> <CNNscore>
0.2229308188

> <CNNaffinity>
5.1579446793

> <CNN_VS>
1.1498647928

> <CNNaffinity_variance>
0.3454553187

$$$$
[H]c1c([H])c(-c2c([H])c([H])c(-c3nc(=O)n([H])o3)c([H])c2C#N)c([H])c([H])c1C(=O)N(C([H])([H])[H])C([H])([H])[H]


 26 28  0  0  0  0  0  0  0  0999 V2000
  -87.7501   30.6751   -1.7878 C   0  0  0  0  0  0  0  0  0  0  0  0
  -86.9527   31.5597   -1.0640 C   0  0  0  0  0  0  0  0  0  0  0  0
  -86.0221   31.0671   -0.1949 C   0  0  0  0  0  0  0  0  0  0  0  0
  -85.8103   29.7239    0.0227 C   0  0  0  0  0  0  0  0  0  0  0  0
  -86.6059   28.8674   -0.7002 C   0  0  0  0  0  0  0  0  0  0  0  0
  -87.5717   29.3303   -1.6018 C   0  0  0  0  0  0  0  0  0  0  0  0
  -84.7987   29.2619    0.9669 C   0  0  0  0  0  0  0  0  0  0  0  0
  -84.8683   28.1409    1.7113 N   0  0  0  0  0  0  0  0  0  0  0  0
  -83.7743   28.0400    2.4524 C   0  0  0  0  0  0  0  0  0  0  0  0
  -83.5103   27.0993    3.2745 O   0  0  0  0  0  0  0  0  0  0  0  0
  -83.0165   29.1102    2.1654 N   0  0  0  0  0  0  0  0  0  0  0  0
  -83.6577   29.8086    1.2822 O   0  0  0  0  0  0  0  0  0  0  0  0
  -82.0914   29.2765    2.6155 H   0  0  0  0  0  0  0  0  0  0  0  0
  -90.7604   32.1529   -4.4254 C   0  0  0  0  0  0  0  0  0  0  0  0
  -89.4478   32.0343   -4.8227 C   0  0  0  0  0  0  0  0  0  0  0  0
  -88.4525   31.5510   -3.9789 C   0  0  0  0  0  0  0  0  0  0  0  0
  -88.7600   31.1744   -2.7077 C   0  0  0  0  0  0  0  0  0  0  0  0
  -90.0651   31.2868   -2.2980 C   0  0  0  0  0  0  0  0  0  0  0  0
  -91.0642   31.7600   -3.1104 C   0  0  0  0  0  0  0  0  0  0  0  0
  -93.2567   30.6269   -5.8214 C   0  0  0  0  0  0  0  0  0  0  0  0
  -92.8828   32.0106   -5.8415 N   0  0  0  0  0  0  0  0  0  0  0  0
  -93.8467   32.8423   -6.6553 C   0  0  0  0  0  0  0  0  0  0  0  0
  -91.8132   32.6414   -5.2402 C   0  0  0  0  0  0  0  0  0  0  0  0
  -91.7832   33.9403   -5.4814 O   0  0  0  0  0  0  0  0  0  0  0  0
  -88.3636   28.3591   -2.3430 C   0  0  0  0  0  0  0  0  0  0  0  0
  -88.9889   27.5624   -2.9238 N   0  0  0  0  0  0  0  0  0  0  0  0
 20 21  1  0  0  0
 21 22  1  0  0  0
 21 23  1  0  0  0
 23 24  2  0  0  0
 23 14  1  0  0  0
 14 15  2  0  0  0
 15 16  1  0  0  0
 16 17  2  0  0  0
 17 18  1  0  0  0
 18 19  2  0  0  0
 17  1  1  0  0  0
  1  2  2  0  0  0
  2  3  1  0  0  0
  3  4  2  0  0  0
  4  5  1  0  0  0
  5  6  2  0  0  0
  6 25  1  0  0  0
 25 26  3  0  0  0
  4  7  1  0  0  0
  7  8  2  0  0  0
  8  9  1  0  0  0
  9 10  2  0  0  0
  9 11  1  0  0  0
 11 12  1  0  0  0
 19 14  1  0  0  0
  6  1  1  0  0  0
 12  7  1  0  0  0
 11 13  1  0  0  0
M  END
> <minimizedAffinity>
-7.62338

> <CNNscore>
0.1847004443

> <CNNaffinity>
5.5351781845

> <CNN_VS>
1.0223498344

> <CNNaffinity_variance>
0.1166874021

$$$$
[H]c1c([H])c(-c2c([H])c([H])c(-c3nc(=O)n([H])o3)c([H])c2C#N)c([H])c([H])c1C(=O)N(C([H])([H])[H])C([H])([H])[H]


 26 28  0  0  0  0  0  0  0  0999 V2000
  -87.2973   27.7042    0.7922 C   0  0  0  0  0  0  0  0  0  0  0  0
  -86.0598   27.5891    1.4226 C   0  0  0  0  0  0  0  0  0  0  0  0
  -85.1555   28.6065    1.3166 C   0  0  0  0  0  0  0  0  0  0  0  0
  -85.3855   29.7678    0.6131 C   0  0  0  0  0  0  0  0  0  0  0  0
  -86.6114   29.8628   -0.0012 C   0  0  0  0  0  0  0  0  0  0  0  0
  -87.5673   28.8434    0.0822 C   0  0  0  0  0  0  0  0  0  0  0  0
  -84.3760   30.8183    0.5383 C   0  0  0  0  0  0  0  0  0  0  0  0
  -84.5002   31.9855   -0.1233 N   0  0  0  0  0  0  0  0  0  0  0  0
  -83.3896   32.6928    0.0264 C   0  0  0  0  0  0  0  0  0  0  0  0
  -83.1651   33.8488   -0.4674 O   0  0  0  0  0  0  0  0  0  0  0  0
  -82.5661   31.9569    0.7895 N   0  0  0  0  0  0  0  0  0  0  0  0
  -83.1867   30.8549    1.0714 O   0  0  0  0  0  0  0  0  0  0  0  0
  -81.6149   32.2845    1.0615 H   0  0  0  0  0  0  0  0  0  0  0  0
  -90.1245   24.5139    0.9733 C   0  0  0  0  0  0  0  0  0  0  0  0
  -89.8858   25.3288    2.0566 C   0  0  0  0  0  0  0  0  0  0  0  0
  -88.9709   26.3766    2.0163 C   0  0  0  0  0  0  0  0  0  0  0  0
  -88.2718   26.6276    0.8758 C   0  0  0  0  0  0  0  0  0  0  0  0
  -88.4999   25.8232   -0.2126 C   0  0  0  0  0  0  0  0  0  0  0  0
  -89.3961   24.7846   -0.1981 C   0  0  0  0  0  0  0  0  0  0  0  0
  -89.6746   21.3494    0.4318 C   0  0  0  0  0  0  0  0  0  0  0  0
  -90.8697   22.0814    0.7327 N   0  0  0  0  0  0  0  0  0  0  0  0
  -92.0803   21.1796    0.7998 C   0  0  0  0  0  0  0  0  0  0  0  0
  -91.0406   23.4316    0.9591 C   0  0  0  0  0  0  0  0  0  0  0  0
  -92.2981   23.7543    1.2061 O   0  0  0  0  0  0  0  0  0  0  0  0
  -88.8496   29.0266   -0.5825 C   0  0  0  0  0  0  0  0  0  0  0  0
  -89.8670   29.1880   -1.1321 N   0  0  0  0  0  0  0  0  0  0  0  0
 20 21  1  0  0  0
 21 22  1  0  0  0
 21 23  1  0  0  0
 23 24  2  0  0  0
 23 14  1  0  0  0
 14 15  2  0  0  0
 15 16  1  0  0  0
 16 17  2  0  0  0
 17 18  1  0  0  0
 18 19  2  0  0  0
 17  1  1  0  0  0
  1  2  2  0  0  0
  2  3  1  0  0  0
  3  4  2  0  0  0
  4  5  1  0  0  0
  5  6  2  0  0  0
  6 25  1  0  0  0
 25 26  3  0  0  0
  4  7  1  0  0  0
  7  8  2  0  0  0
  8  9  1  0  0  0
  9 10  2  0  0  0
  9 11  1  0  0  0
 11 12  1  0  0  0
 19 14  1  0  0  0
  6  1  1  0  0  0
 12  7  1  0  0  0
 11 13  1  0  0  0
M  END
> <minimizedAffinity>
-7.78238

> <CNNscore>
0.1375240088

> <CNNaffinity>
5.5336227417

> <CNN_VS>
0.7610059977

> <CNNaffinity_variance>
0.4175106585

$$$$
[H]Oc1c([H])c([H])c(C([H])([H])N(c2c([H])c([H])c([H])c(Br)c2[H])[C@]([H])(C([H])([H])[H])C([H])([H])[C@]2(O[H])C(=O)[C@@]2([H])n2c([H])nc([H])c2[H])c([H])c1[H]


 31 34  0  0  0  0  0  0  0  0999 V2000
  -87.1478   29.2213    0.0108 N   0  0  0  0  0  0  0  0  0  0  0  0
  -85.8786   29.2825    0.6511 C   0  0  0  0  0  0  0  0  0  0  0  0
  -85.5644   28.4071    1.6874 C   0  0  0  0  0  0  0  0  0  0  0  0
  -84.3457   28.4783    2.3548 C   0  0  0  0  0  0  0  0  0  0  0  0
  -83.4042   29.4243    2.0081 C   0  0  0  0  0  0  0  0  0  0  0  0
  -83.6940   30.2987    0.9876 C   0  0  0  0  0  0  0  0  0  0  0  0
  -82.4067   31.6128    0.4966 Br  0  0  0  0  0  0  0  0  0  0  0  0
  -84.9207   30.2141    0.3292 C   0  0  0  0  0  0  0  0  0  0  0  0
  -87.6987   28.0835   -0.6634 C   0  0  0  0  0  0  0  0  0  0  0  0
  -87.3109   27.8732   -2.0741 C   0  0  0  0  0  0  0  0  0  0  0  0
  -89.1774   27.9601   -0.3691 C   0  0  0  0  0  0  0  0  0  0  0  0
  -88.4061   26.2767    1.2774 O   0  0  0  0  0  0  0  0  0  0  0  0
  -89.4629   26.9893    0.7286 C   0  0  0  0  0  0  0  0  0  0  0  0
  -90.4827   27.4776    1.7257 C   0  0  0  0  0  0  0  0  0  0  0  0
  -90.8136   26.3334    0.7652 C   0  0  0  0  0  0  0  0  0  0  0  0
  -91.7081   25.5781    0.4735 O   0  0  0  0  0  0  0  0  0  0  0  0
  -87.5775   26.7852    1.0133 H   0  0  0  0  0  0  0  0  0  0  0  0
  -90.4863   27.0411    3.0842 N   0  0  0  0  0  0  0  0  0  0  0  0
  -89.9968   27.7960    4.1117 C   0  0  0  0  0  0  0  0  0  0  0  0
  -90.1287   27.1358    5.2918 C   0  0  0  0  0  0  0  0  0  0  0  0
  -90.7109   25.9505    4.9920 N   0  0  0  0  0  0  0  0  0  0  0  0
  -90.9216   25.9059    3.6491 C   0  0  0  0  0  0  0  0  0  0  0  0
  -87.9307   30.4392   -0.0071 C   0  0  0  0  0  0  0  0  0  0  0  0
  -87.6012   31.3833   -1.0716 C   0  0  0  0  0  0  0  0  0  0  0  0
  -86.9643   32.5601   -0.6612 C   0  0  0  0  0  0  0  0  0  0  0  0
  -86.6039   33.5547   -1.5380 C   0  0  0  0  0  0  0  0  0  0  0  0
  -86.8614   33.4248   -2.8798 C   0  0  0  0  0  0  0  0  0  0  0  0
  -86.4904   34.4359   -3.7450 O   0  0  0  0  0  0  0  0  0  0  0  0
  -87.4878   32.2686   -3.2940 C   0  0  0  0  0  0  0  0  0  0  0  0
  -87.8490   31.2681   -2.3979 C   0  0  0  0  0  0  0  0  0  0  0  0
  -86.6614   34.3849   -4.7525 H   0  0  0  0  0  0  0  0  0  0  0  0
 13 12  1  0  0  0
 13 11  1  0  0  0
 11  9  1  0  0  0
  9 10  1  0  0  0
  9  1  1  0  0  0
  1 23  1  0  0  0
 23 24  1  0  0  0
 24 25  2  0  0  0
 25 26  1  0  0  0
 26 27  2  0  0  0
 27 28  1  0  0  0
 27 29  1  0  0  0
 29 30  2  0  0  0
  1  2  1  0  0  0
  2  3  2  0  0  0
  3  4  1  0  0  0
  4  5  2  0  0  0
  5  6  1  0  0  0
  6  7  1  0  0  0
  6  8  2  0  0  0
 13 14  1  0  0  0
 14 18  1  0  0  0
 18 19  1  0  0  0
 19 20  2  0  0  0
 20 21  1  0  0  0
 21 22  2  0  0  0
 14 15  1  0  0  0
 15 16  2  0  0  0
 15 13  1  0  0  0
 30 24  1  0  0  0
  8  2  1  0  0  0
 22 18  1  0  0  0
 12 17  1  0  0  0
 28 31  1  0  0  0
M  END
> <minimizedAffinity>
-9.16439

> <CNNscore>
0.3444522619

> <CNNaffinity>
6.4101533890

> <CNN_VS>
2.2079918385

> <CNNaffinity_variance>
0.1802734733

$$$$
[H]Oc1c([H])c([H])c(C([H])([H])N(c2c([H])c([H])c([H])c(Br)c2[H])[C@]([H])(C([H])([H])[H])C([H])([H])[C@]2(O[H])C(=O)[C@@]2([H])n2c([H])nc([H])c2[H])c([H])c1[H]


 31 34  0  0  0  0  0  0  0  0999 V2000
  -87.2980   29.3021   -0.0917 N   0  0  0  0  0  0  0  0  0  0  0  0
  -86.0792   29.3824    0.6383 C   0  0  0  0  0  0  0  0  0  0  0  0
  -85.8879   28.6161    1.7851 C   0  0  0  0  0  0  0  0  0  0  0  0
  -84.7210   28.7112    2.5366 C   0  0  0  0  0  0  0  0  0  0  0  0
  -83.7102   29.5731    2.1665 C   0  0  0  0  0  0  0  0  0  0  0  0
  -83.8784   30.3392    1.0375 C   0  0  0  0  0  0  0  0  0  0  0  0
  -82.4941   31.5362    0.5124 Br  0  0  0  0  0  0  0  0  0  0  0  0
  -85.0547   30.2320    0.2956 C   0  0  0  0  0  0  0  0  0  0  0  0
  -87.7779   28.1591   -0.8097 C   0  0  0  0  0  0  0  0  0  0  0  0
  -87.2906   27.9685   -2.1921 C   0  0  0  0  0  0  0  0  0  0  0  0
  -89.2703   28.0031   -0.6179 C   0  0  0  0  0  0  0  0  0  0  0  0
  -89.4928   26.2977   -2.4016 O   0  0  0  0  0  0  0  0  0  0  0  0
  -89.9522   27.4801   -1.8387 C   0  0  0  0  0  0  0  0  0  0  0  0
  -91.4522   27.6268   -1.8104 C   0  0  0  0  0  0  0  0  0  0  0  0
  -90.6024   28.4648   -2.7678 C   0  0  0  0  0  0  0  0  0  0  0  0
  -90.7039   29.3115   -3.6214 O   0  0  0  0  0  0  0  0  0  0  0  0
  -88.9494   25.8532   -1.6791 H   0  0  0  0  0  0  0  0  0  0  0  0
  -92.3160   26.7368   -2.5162 N   0  0  0  0  0  0  0  0  0  0  0  0
  -92.5430   25.4489   -2.1226 C   0  0  0  0  0  0  0  0  0  0  0  0
  -93.4047   24.8358   -2.9756 C   0  0  0  0  0  0  0  0  0  0  0  0
  -93.7188   25.7594   -3.9148 N   0  0  0  0  0  0  0  0  0  0  0  0
  -93.0507   26.9079   -3.6244 C   0  0  0  0  0  0  0  0  0  0  0  0
  -88.1004   30.5056   -0.1590 C   0  0  0  0  0  0  0  0  0  0  0  0
  -87.7330   31.4487   -1.2120 C   0  0  0  0  0  0  0  0  0  0  0  0
  -87.1322   32.6361   -0.7784 C   0  0  0  0  0  0  0  0  0  0  0  0
  -86.7436   33.6310   -1.6427 C   0  0  0  0  0  0  0  0  0  0  0  0
  -86.9348   33.4906   -2.9946 C   0  0  0  0  0  0  0  0  0  0  0  0
  -86.5363   34.5022   -3.8469 O   0  0  0  0  0  0  0  0  0  0  0  0
  -87.5250   32.3239   -3.4315 C   0  0  0  0  0  0  0  0  0  0  0  0
  -87.9153   31.3232   -2.5478 C   0  0  0  0  0  0  0  0  0  0  0  0
  -86.6581   34.4437   -4.8611 H   0  0  0  0  0  0  0  0  0  0  0  0
 13 12  1  0  0  0
 13 11  1  0  0  0
 11  9  1  0  0  0
  9 10  1  0  0  0
  9  1  1  0  0  0
  1 23  1  0  0  0
 23 24  1  0  0  0
 24 25  2  0  0  0
 25 26  1  0  0  0
 26 27  2  0  0  0
 27 28  1  0  0  0
 27 29  1  0  0  0
 29 30  2  0  0  0
  1  2  1  0  0  0
  2  3  2  0  0  0
  3  4  1  0  0  0
  4  5  2  0  0  0
  5  6  1  0  0  0
  6  7  1  0  0  0
  6  8  2  0  0  0
 13 14  1  0  0  0
 14 18  1  0  0  0
 18 19  1  0  0  0
 19 20  2  0  0  0
 20 21  1  0  0  0
 21 22  2  0  0  0
 14 15  1  0  0  0
 15 16  2  0  0  0
 15 13  1  0  0  0
 30 24  1  0  0  0
  8  2  1  0  0  0
 22 18  1  0  0  0
 12 17  1  0  0  0
 28 31  1  0  0  0
M  END
> <minimizedAffinity>
-8.15796

> <CNNscore>
0.2644353509

> <CNNaffinity>
6.0599918365

> <CNN_VS>
1.6024761200

> <CNNaffinity_variance>
0.2249124348

$$$$
[H]Oc1c([H])c([H])c(C([H])([H])N(c2c([H])c([H])c([H])c(Br)c2[H])[C@]([H])(C([H])([H])[H])C([H])([H])[C@]2(O[H])C(=O)[C@@]2([H])n2c([H])nc([H])c2[H])c([H])c1[H]


 31 34  0  0  0  0  0  0  0  0999 V2000
  -87.6027   29.1677   -0.1987 N   0  0  0  0  0  0  0  0  0  0  0  0
  -86.4346   29.7102    0.4064 C   0  0  0  0  0  0  0  0  0  0  0  0
  -86.2000   31.0827    0.3899 C   0  0  0  0  0  0  0  0  0  0  0  0
  -85.0439   31.6291    0.9381 C   0  0  0  0  0  0  0  0  0  0  0  0
  -84.0879   30.8229    1.5193 C   0  0  0  0  0  0  0  0  0  0  0  0
  -84.2995   29.4649    1.5463 C   0  0  0  0  0  0  0  0  0  0  0  0
  -82.9894   28.3362    2.3429 Br  0  0  0  0  0  0  0  0  0  0  0  0
  -85.4637   28.9333    0.9917 C   0  0  0  0  0  0  0  0  0  0  0  0
  -88.7607   29.9049   -0.6086 C   0  0  0  0  0  0  0  0  0  0  0  0
  -89.8991   29.9648    0.3323 C   0  0  0  0  0  0  0  0  0  0  0  0
  -89.1166   29.5753   -2.0415 C   0  0  0  0  0  0  0  0  0  0  0  0
  -90.4009   31.4163   -3.0907 O   0  0  0  0  0  0  0  0  0  0  0  0
  -89.1766   30.7886   -2.9094 C   0  0  0  0  0  0  0  0  0  0  0  0
  -88.0061   31.7225   -2.7351 C   0  0  0  0  0  0  0  0  0  0  0  0
  -88.1783   30.9163   -4.0242 C   0  0  0  0  0  0  0  0  0  0  0  0
  -87.6531   30.7280   -5.0940 O   0  0  0  0  0  0  0  0  0  0  0  0
  -90.9832   31.0849   -2.3384 H   0  0  0  0  0  0  0  0  0  0  0  0
  -88.1114   33.1253   -2.9745 N   0  0  0  0  0  0  0  0  0  0  0  0
  -87.1025   33.8667   -3.5200 C   0  0  0  0  0  0  0  0  0  0  0  0
  -87.4767   35.1679   -3.6344 C   0  0  0  0  0  0  0  0  0  0  0  0
  -88.7403   35.2353   -3.1522 N   0  0  0  0  0  0  0  0  0  0  0  0
  -89.1126   33.9891   -2.7545 C   0  0  0  0  0  0  0  0  0  0  0  0
  -87.6455   27.7299   -0.3649 C   0  0  0  0  0  0  0  0  0  0  0  0
  -88.5609   27.0206    0.5250 C   0  0  0  0  0  0  0  0  0  0  0  0
  -88.2315   27.0553    1.8848 C   0  0  0  0  0  0  0  0  0  0  0  0
  -88.9814   26.4238    2.8475 C   0  0  0  0  0  0  0  0  0  0  0  0
  -90.1079   25.7207    2.5002 C   0  0  0  0  0  0  0  0  0  0  0  0
  -90.8486   25.0934    3.4833 O   0  0  0  0  0  0  0  0  0  0  0  0
  -90.4411   25.6815    1.1630 C   0  0  0  0  0  0  0  0  0  0  0  0
  -89.6745   26.3238    0.1965 C   0  0  0  0  0  0  0  0  0  0  0  0
  -91.6948   24.5579    3.2736 H   0  0  0  0  0  0  0  0  0  0  0  0
 13 12  1  0  0  0
 13 11  1  0  0  0
 11  9  1  0  0  0
  9 10  1  0  0  0
  9  1  1  0  0  0
  1 23  1  0  0  0
 23 24  1  0  0  0
 24 25  2  0  0  0
 25 26  1  0  0  0
 26 27  2  0  0  0
 27 28  1  0  0  0
 27 29  1  0  0  0
 29 30  2  0  0  0
  1  2  1  0  0  0
  2  3  2  0  0  0
  3  4  1  0  0  0
  4  5  2  0  0  0
  5  6  1  0  0  0
  6  7  1  0  0  0
  6  8  2  0  0  0
 13 14  1  0  0  0
 14 18  1  0  0  0
 18 19  1  0  0  0
 19 20  2  0  0  0
 20 21  1  0  0  0
 21 22  2  0  0  0
 14 15  1  0  0  0
 15 16  2  0  0  0
 15 13  1  0  0  0
 30 24  1  0  0  0
  8  2  1  0  0  0
 22 18  1  0  0  0
 12 17  1  0  0  0
 28 31  1  0  0  0
M  END
> <minimizedAffinity>
-8.04205

> <CNNscore>
0.1965717077

> <CNNaffinity>
6.3048372269

> <CNN_VS>
1.2393525839

> <CNNaffinity_variance>
0.1605614722

$$$$
[H]Oc1c([H])c([H])c(C([H])([H])N(c2c([H])c([H])c([H])c(Br)c2[H])[C@]([H])(C([H])([H])[H])C([H])([H])[C@]2(O[H])C(=O)[C@@]2([H])n2c([H])nc([H])c2[H])c([H])c1[H]


 31 34  0  0  0  0  0  0  0  0999 V2000
  -86.5383   31.4588   -0.1954 N   0  0  0  0  0  0  0  0  0  0  0  0
  -85.2702   31.0957    0.3381 C   0  0  0  0  0  0  0  0  0  0  0  0
  -84.1423   31.8684    0.0739 C   0  0  0  0  0  0  0  0  0  0  0  0
  -82.8860   31.5077    0.5504 C   0  0  0  0  0  0  0  0  0  0  0  0
  -82.7174   30.3658    1.3049 C   0  0  0  0  0  0  0  0  0  0  0  0
  -83.8178   29.5881    1.5776 C   0  0  0  0  0  0  0  0  0  0  0  0
  -83.6035   28.0069    2.6161 Br  0  0  0  0  0  0  0  0  0  0  0  0
  -85.0700   29.9638    1.0917 C   0  0  0  0  0  0  0  0  0  0  0  0
  -86.8078   32.5849   -1.0390 C   0  0  0  0  0  0  0  0  0  0  0  0
  -85.8733   33.7280   -0.9693 C   0  0  0  0  0  0  0  0  0  0  0  0
  -88.2772   32.9410   -0.9913 C   0  0  0  0  0  0  0  0  0  0  0  0
  -90.2593   32.2575   -2.3116 O   0  0  0  0  0  0  0  0  0  0  0  0
  -88.9576   32.7386   -2.3046 C   0  0  0  0  0  0  0  0  0  0  0  0
  -88.6793   33.8263   -3.3106 C   0  0  0  0  0  0  0  0  0  0  0  0
  -88.1108   32.4188   -3.5031 C   0  0  0  0  0  0  0  0  0  0  0  0
  -87.4324   31.7735   -4.2642 O   0  0  0  0  0  0  0  0  0  0  0  0
  -90.6066   32.4178   -1.3797 H   0  0  0  0  0  0  0  0  0  0  0  0
  -89.6073   34.1638   -4.3408 N   0  0  0  0  0  0  0  0  0  0  0  0
  -90.4953   35.1960   -4.2360 C   0  0  0  0  0  0  0  0  0  0  0  0
  -91.2522   35.2883   -5.3606 C   0  0  0  0  0  0  0  0  0  0  0  0
  -90.8262   34.2964   -6.1781 N   0  0  0  0  0  0  0  0  0  0  0  0
  -89.8285   33.6214   -5.5466 C   0  0  0  0  0  0  0  0  0  0  0  0
  -87.6699   30.6445    0.1960 C   0  0  0  0  0  0  0  0  0  0  0  0
  -88.1018   29.6537   -0.7863 C   0  0  0  0  0  0  0  0  0  0  0  0
  -89.4093   29.1789   -0.6324 C   0  0  0  0  0  0  0  0  0  0  0  0
  -89.9592   28.2332   -1.4638 C   0  0  0  0  0  0  0  0  0  0  0  0
  -89.2274   27.7096   -2.5002 C   0  0  0  0  0  0  0  0  0  0  0  0
  -89.7989   26.7603   -3.3254 O   0  0  0  0  0  0  0  0  0  0  0  0
  -87.9386   28.1719   -2.6605 C   0  0  0  0  0  0  0  0  0  0  0  0
  -87.3914   29.1290   -1.8127 C   0  0  0  0  0  0  0  0  0  0  0  0
  -89.2935   26.3410   -4.1099 H   0  0  0  0  0  0  0  0  0  0  0  0
 13 12  1  0  0  0
 13 11  1  0  0  0
 11  9  1  0  0  0
  9 10  1  0  0  0
  9  1  1  0  0  0
  1 23  1  0  0  0
 23 24  1  0  0  0
 24 25  2  0  0  0
 25 26  1  0  0  0
 26 27  2  0  0  0
 27 28  1  0  0  0
 27 29  1  0  0  0
 29 30  2  0  0  0
  1  2  1  0  0  0
  2  3  2  0  0  0
  3  4  1  0  0  0
  4  5  2  0  0  0
  5  6  1  0  0  0
  6  7  1  0  0  0
  6  8  2  0  0  0
 13 14  1  0  0  0
 14 18  1  0  0  0
 18 19  1  0  0  0
 19 20  2  0  0  0
 20 21  1  0  0  0
 21 22  2  0  0  0
 14 15  1  0  0  0
 15 16  2  0  0  0
 15 13  1  0  0  0
 30 24  1  0  0  0
  8  2  1  0  0  0
 22 18  1  0  0  0
 12 17  1  0  0  0
 28 31  1  0  0  0
M  END
> <minimizedAffinity>
-8.64243

> <CNNscore>
0.1924802363

> <CNNaffinity>
5.8185224533

> <CNN_VS>
1.1199505329

> <CNNaffinity_variance>
0.4058831334

$$$$
[H]Oc1c([H])c([H])c(C([H])([H])N(c2c([H])c([H])c([H])c(Br)c2[H])[C@]([H])(C([H])([H])[H])C([H])([H])[C@]2(O[H])C(=O)[C@@]2([H])n2c([H])nc([H])c2[H])c([H])c1[H]


 31 34  0  0  0  0  0  0  0  0999 V2000
  -86.8126   31.1005   -0.0729 N   0  0  0  0  0  0  0  0  0  0  0  0
  -85.4981   30.8665    0.4191 C   0  0  0  0  0  0  0  0  0  0  0  0
  -84.4631   31.7502    0.1245 C   0  0  0  0  0  0  0  0  0  0  0  0
  -83.1624   31.5174    0.5600 C   0  0  0  0  0  0  0  0  0  0  0  0
  -82.8556   30.3966    1.3025 C   0  0  0  0  0  0  0  0  0  0  0  0
  -83.8625   29.5108    1.6045 C   0  0  0  0  0  0  0  0  0  0  0  0
  -83.4569   27.9568    2.6270 Br  0  0  0  0  0  0  0  0  0  0  0  0
  -85.1609   29.7589    1.1597 C   0  0  0  0  0  0  0  0  0  0  0  0
  -87.7070   30.1105   -0.5947 C   0  0  0  0  0  0  0  0  0  0  0  0
  -88.3856   29.2257    0.3755 C   0  0  0  0  0  0  0  0  0  0  0  0
  -87.0882   29.4159   -1.7875 C   0  0  0  0  0  0  0  0  0  0  0  0
  -88.4538   27.9151   -3.2096 O   0  0  0  0  0  0  0  0  0  0  0  0
  -88.0635   29.2101   -2.8990 C   0  0  0  0  0  0  0  0  0  0  0  0
  -89.1718   30.2313   -2.9356 C   0  0  0  0  0  0  0  0  0  0  0  0
  -88.0899   30.2122   -4.0174 C   0  0  0  0  0  0  0  0  0  0  0  0
  -87.7525   30.7895   -5.0218 O   0  0  0  0  0  0  0  0  0  0  0  0
  -88.2125   27.3641   -2.4016 H   0  0  0  0  0  0  0  0  0  0  0  0
  -90.4595   29.9358   -3.4749 N   0  0  0  0  0  0  0  0  0  0  0  0
  -91.0800   30.7258   -4.4001 C   0  0  0  0  0  0  0  0  0  0  0  0
  -92.2896   30.2056   -4.7351 C   0  0  0  0  0  0  0  0  0  0  0  0
  -92.4222   29.0725   -4.0056 N   0  0  0  0  0  0  0  0  0  0  0  0
  -91.3050   28.9213   -3.2448 C   0  0  0  0  0  0  0  0  0  0  0  0
  -87.2663   32.4754   -0.0981 C   0  0  0  0  0  0  0  0  0  0  0  0
  -87.4710   33.0461   -1.4268 C   0  0  0  0  0  0  0  0  0  0  0  0
  -88.7934   33.3741   -1.7474 C   0  0  0  0  0  0  0  0  0  0  0  0
  -89.1538   33.9040   -2.9629 C   0  0  0  0  0  0  0  0  0  0  0  0
  -88.2059   34.1366   -3.9278 C   0  0  0  0  0  0  0  0  0  0  0  0
  -88.5888   34.6707   -5.1431 O   0  0  0  0  0  0  0  0  0  0  0  0
  -86.9003   33.8175   -3.6210 C   0  0  0  0  0  0  0  0  0  0  0  0
  -86.5463   33.2809   -2.3877 C   0  0  0  0  0  0  0  0  0  0  0  0
  -87.9192   34.8613   -5.8928 H   0  0  0  0  0  0  0  0  0  0  0  0
 13 12  1  0  0  0
 13 11  1  0  0  0
 11  9  1  0  0  0
  9 10  1  0  0  0
  9  1  1  0  0  0
  1 23  1  0  0  0
 23 24  1  0  0  0
 24 25  2  0  0  0
 25 26  1  0  0  0
 26 27  2  0  0  0
 27 28  1  0  0  0
 27 29  1  0  0  0
 29 30  2  0  0  0
  1  2  1  0  0  0
  2  3  2  0  0  0
  3  4  1  0  0  0
  4  5  2  0  0  0
  5  6  1  0  0  0
  6  7  1  0  0  0
  6  8  2  0  0  0
 13 14  1  0  0  0
 14 18  1  0  0  0
 18 19  1  0  0  0
 19 20  2  0  0  0
 20 21  1  0  0  0
 21 22  2  0  0  0
 14 15  1  0  0  0
 15 16  2  0  0  0
 15 13  1  0  0  0
 30 24  1  0  0  0
  8  2  1  0  0  0
 22 18  1  0  0  0
 12 17  1  0  0  0
 28 31  1  0  0  0
M  END
> <minimizedAffinity>
-8.70127

> <CNNscore>
0.1750264466

> <CNNaffinity>
6.0201287270

> <CNN_VS>
1.0536817312

> <CNNaffinity_variance>
0.3029475510

$$$$
[H]Oc1c([H])c([H])c(C([H])([H])N(c2c([H])c([H])c([H])c(Br)c2[H])[C@]([H])(C([H])([H])[H])C([H])([H])[C@]2(O[H])C(=O)[C@@]2([H])n2c([H])nc([H])c2[H])c([H])c1[H]


 31 34  0  0  0  0  0  0  0  0999 V2000
  -87.0926   28.2139    0.5624 N   0  0  0  0  0  0  0  0  0  0  0  0
  -85.7897   28.5517    1.0241 C   0  0  0  0  0  0  0  0  0  0  0  0
  -85.1518   27.7682    1.9823 C   0  0  0  0  0  0  0  0  0  0  0  0
  -83.8962   28.1047    2.4779 C   0  0  0  0  0  0  0  0  0  0  0  0
  -83.2394   29.2324    2.0323 C   0  0  0  0  0  0  0  0  0  0  0  0
  -83.8513   30.0204    1.0865 C   0  0  0  0  0  0  0  0  0  0  0  0
  -82.9602   31.5823    0.4611 Br  0  0  0  0  0  0  0  0  0  0  0  0
  -85.1105   29.6690    0.6005 C   0  0  0  0  0  0  0  0  0  0  0  0
  -87.9944   29.0849   -0.1309 C   0  0  0  0  0  0  0  0  0  0  0  0
  -89.4139   28.6793   -0.2028 C   0  0  0  0  0  0  0  0  0  0  0  0
  -87.3829   29.5493   -1.4342 C   0  0  0  0  0  0  0  0  0  0  0  0
  -88.4784   31.7586   -1.1932 O   0  0  0  0  0  0  0  0  0  0  0  0
  -88.1108   30.7109   -2.0256 C   0  0  0  0  0  0  0  0  0  0  0  0
  -87.5965   31.1286   -3.3796 C   0  0  0  0  0  0  0  0  0  0  0  0
  -88.9707   30.4717   -3.2336 C   0  0  0  0  0  0  0  0  0  0  0  0
  -89.9198   30.1185   -3.8895 O   0  0  0  0  0  0  0  0  0  0  0  0
  -87.9048   31.6585   -0.3712 H   0  0  0  0  0  0  0  0  0  0  0  0
  -87.7031   32.4710   -3.8517 N   0  0  0  0  0  0  0  0  0  0  0  0
  -86.9346   33.4934   -3.3729 C   0  0  0  0  0  0  0  0  0  0  0  0
  -87.2467   34.6573   -4.0006 C   0  0  0  0  0  0  0  0  0  0  0  0
  -88.2257   34.3521   -4.8851 N   0  0  0  0  0  0  0  0  0  0  0  0
  -88.4934   33.0224   -4.7836 C   0  0  0  0  0  0  0  0  0  0  0  0
  -87.5709   26.8824    0.8708 C   0  0  0  0  0  0  0  0  0  0  0  0
  -88.5226   26.7959    1.9753 C   0  0  0  0  0  0  0  0  0  0  0  0
  -89.4232   25.7262    1.9157 C   0  0  0  0  0  0  0  0  0  0  0  0
  -90.3906   25.5153    2.8685 C   0  0  0  0  0  0  0  0  0  0  0  0
  -90.5091   26.3668    3.9384 C   0  0  0  0  0  0  0  0  0  0  0  0
  -91.4878   26.1369    4.8859 O   0  0  0  0  0  0  0  0  0  0  0  0
  -89.6257   27.4230    4.0063 C   0  0  0  0  0  0  0  0  0  0  0  0
  -88.6505   27.6277    3.0360 C   0  0  0  0  0  0  0  0  0  0  0  0
  -91.6153   26.7434    5.7000 H   0  0  0  0  0  0  0  0  0  0  0  0
 13 12  1  0  0  0
 13 11  1  0  0  0
 11  9  1  0  0  0
  9 10  1  0  0  0
  9  1  1  0  0  0
  1 23  1  0  0  0
 23 24  1  0  0  0
 24 25  2  0  0  0
 25 26  1  0  0  0
 26 27  2  0  0  0
 27 28  1  0  0  0
 27 29  1  0  0  0
 29 30  2  0  0  0
  1  2  1  0  0  0
  2  3  2  0  0  0
  3  4  1  0  0  0
  4  5  2  0  0  0
  5  6  1  0  0  0
  6  7  1  0  0  0
  6  8  2  0  0  0
 13 14  1  0  0  0
 14 18  1  0  0  0
 18 19  1  0  0  0
 19 20  2  0  0  0
 20 21  1  0  0  0
 21 22  2  0  0  0
 14 15  1  0  0  0
 15 16  2  0  0  0
 15 13  1  0  0  0
 30 24  1  0  0  0
  8  2  1  0  0  0
 22 18  1  0  0  0
 12 17  1  0  0  0
 28 31  1  0  0  0
M  END
> <minimizedAffinity>
-8.96937

> <CNNscore>
0.1730718017

> <CNNaffinity>
6.1755499840

> <CNN_VS>
1.0688135624

> <CNNaffinity_variance>
0.4243792892

$$$$
[H]Oc1c([H])c([H])c(C([H])([H])N(c2c([H])c([H])c([H])c(Br)c2[H])[C@]([H])(C([H])([H])[H])C([H])([H])[C@]2(O[H])C(=O)[C@@]2([H])n2c([H])nc([H])c2[H])c([H])c1[H]


 31 34  0  0  0  0  0  0  0  0999 V2000
  -86.8338   28.2945    0.6926 N   0  0  0  0  0  0  0  0  0  0  0  0
  -85.8866   29.2201    1.2130 C   0  0  0  0  0  0  0  0  0  0  0  0
  -85.8618   29.5202    2.5725 C   0  0  0  0  0  0  0  0  0  0  0  0
  -84.9722   30.4537    3.0947 C   0  0  0  0  0  0  0  0  0  0  0  0
  -84.0808   31.1153    2.2766 C   0  0  0  0  0  0  0  0  0  0  0  0
  -84.0884   30.8342    0.9310 C   0  0  0  0  0  0  0  0  0  0  0  0
  -82.8660   31.7395   -0.2141 Br  0  0  0  0  0  0  0  0  0  0  0  0
  -84.9871   29.8959    0.4236 C   0  0  0  0  0  0  0  0  0  0  0  0
  -87.7482   28.5378   -0.3831 C   0  0  0  0  0  0  0  0  0  0  0  0
  -87.5068   27.8277   -1.6569 C   0  0  0  0  0  0  0  0  0  0  0  0
  -88.0363   30.0176   -0.5069 C   0  0  0  0  0  0  0  0  0  0  0  0
  -89.8966   31.6458   -0.3395 O   0  0  0  0  0  0  0  0  0  0  0  0
  -89.4971   30.3220   -0.4565 C   0  0  0  0  0  0  0  0  0  0  0  0
  -90.3268   29.4915   -1.4022 C   0  0  0  0  0  0  0  0  0  0  0  0
  -90.4214   29.2829    0.1106 C   0  0  0  0  0  0  0  0  0  0  0  0
  -90.9909   28.6098    0.9343 O   0  0  0  0  0  0  0  0  0  0  0  0
  -89.0942   32.1904   -0.6124 H   0  0  0  0  0  0  0  0  0  0  0  0
  -91.5591   29.9629   -1.9458 N   0  0  0  0  0  0  0  0  0  0  0  0
  -91.6326   30.9751   -2.8597 C   0  0  0  0  0  0  0  0  0  0  0  0
  -92.9256   31.2137   -3.2023 C   0  0  0  0  0  0  0  0  0  0  0  0
  -93.6678   30.3338   -2.4892 N   0  0  0  0  0  0  0  0  0  0  0  0
  -92.8261   29.5816   -1.7305 C   0  0  0  0  0  0  0  0  0  0  0  0
  -86.9173   27.0060    1.3480 C   0  0  0  0  0  0  0  0  0  0  0  0
  -88.1413   26.7645    2.1074 C   0  0  0  0  0  0  0  0  0  0  0  0
  -88.3830   27.6505    3.1635 C   0  0  0  0  0  0  0  0  0  0  0  0
  -89.4814   27.5483    3.9827 C   0  0  0  0  0  0  0  0  0  0  0  0
  -90.4027   26.5497    3.7878 C   0  0  0  0  0  0  0  0  0  0  0  0
  -91.5007   26.4646    4.6220 O   0  0  0  0  0  0  0  0  0  0  0  0
  -90.1737   25.6725    2.7493 C   0  0  0  0  0  0  0  0  0  0  0  0
  -89.0581   25.7846    1.9264 C   0  0  0  0  0  0  0  0  0  0  0  0
  -92.2136   25.7383    4.5166 H   0  0  0  0  0  0  0  0  0  0  0  0
 13 12  1  0  0  0
 13 11  1  0  0  0
 11  9  1  0  0  0
  9 10  1  0  0  0
  9  1  1  0  0  0
  1 23  1  0  0  0
 23 24  1  0  0  0
 24 25  2  0  0  0
 25 26  1  0  0  0
 26 27  2  0  0  0
 27 28  1  0  0  0
 27 29  1  0  0  0
 29 30  2  0  0  0
  1  2  1  0  0  0
  2  3  2  0  0  0
  3  4  1  0  0  0
  4  5  2  0  0  0
  5  6  1  0  0  0
  6  7  1  0  0  0
  6  8  2  0  0  0
 13 14  1  0  0  0
 14 18  1  0  0  0
 18 19  1  0  0  0
 19 20  2  0  0  0
 20 21  1  0  0  0
 21 22  2  0  0  0
 14 15  1  0  0  0
 15 16  2  0  0  0
 15 13  1  0  0  0
 30 24  1  0  0  0
  8  2  1  0  0  0
 22 18  1  0  0  0
 12 17  1  0  0  0
 28 31  1  0  0  0
M  END
> <minimizedAffinity>
-7.66303

> <CNNscore>
0.1697555929

> <CNNaffinity>
5.9244747162

> <CNN_VS>
1.0057127476

> <CNNaffinity_variance>
0.3821962774

$$$$
[H]Oc1c([H])c([H])c(C([H])([H])N(c2c([H])c([H])c([H])c(Br)c2[H])[C@]([H])(C([H])([H])[H])C([H])([H])[C@]2(O[H])C(=O)[C@@]2([H])n2c([H])nc([H])c2[H])c([H])c1[H]


 31 34  0  0  0  0  0  0  0  0999 V2000
  -85.8383   31.5964   -0.0914 N   0  0  0  0  0  0  0  0  0  0  0  0
  -86.6921   30.5041   -0.4116 C   0  0  0  0  0  0  0  0  0  0  0  0
  -86.2097   29.4151   -1.1330 C   0  0  0  0  0  0  0  0  0  0  0  0
  -87.0383   28.3570   -1.4929 C   0  0  0  0  0  0  0  0  0  0  0  0
  -88.3724   28.3535   -1.1438 C   0  0  0  0  0  0  0  0  0  0  0  0
  -88.8694   29.4191   -0.4315 C   0  0  0  0  0  0  0  0  0  0  0  0
  -90.7094   29.4323    0.0576 Br  0  0  0  0  0  0  0  0  0  0  0  0
  -88.0253   30.4720   -0.0791 C   0  0  0  0  0  0  0  0  0  0  0  0
  -85.4084   32.6238   -0.9926 C   0  0  0  0  0  0  0  0  0  0  0  0
  -84.0210   33.1146   -0.8550 C   0  0  0  0  0  0  0  0  0  0  0  0
  -86.4690   33.6952   -1.1167 C   0  0  0  0  0  0  0  0  0  0  0  0
  -86.6665   32.8522   -3.4383 O   0  0  0  0  0  0  0  0  0  0  0  0
  -87.1942   33.6338   -2.4203 C   0  0  0  0  0  0  0  0  0  0  0  0
  -88.6937   33.5655   -2.2821 C   0  0  0  0  0  0  0  0  0  0  0  0
  -88.0156   34.8211   -2.8343 C   0  0  0  0  0  0  0  0  0  0  0  0
  -88.2730   35.9220   -3.2558 O   0  0  0  0  0  0  0  0  0  0  0  0
  -86.0227   32.2243   -2.9843 H   0  0  0  0  0  0  0  0  0  0  0  0
  -89.5192   32.9393   -3.2633 N   0  0  0  0  0  0  0  0  0  0  0  0
  -89.8143   31.6060   -3.2490 C   0  0  0  0  0  0  0  0  0  0  0  0
  -90.6177   31.2853   -4.2968 C   0  0  0  0  0  0  0  0  0  0  0  0
  -90.8255   32.4399   -4.9731 N   0  0  0  0  0  0  0  0  0  0  0  0
  -90.1527   33.4353   -4.3356 C   0  0  0  0  0  0  0  0  0  0  0  0
  -85.3125   31.6420    1.2570 C   0  0  0  0  0  0  0  0  0  0  0  0
  -84.5387   30.4743    1.6703 C   0  0  0  0  0  0  0  0  0  0  0  0
  -85.2507   29.4930    2.3695 C   0  0  0  0  0  0  0  0  0  0  0  0
  -84.6641   28.3433    2.8409 C   0  0  0  0  0  0  0  0  0  0  0  0
  -83.3269   28.1115    2.6362 C   0  0  0  0  0  0  0  0  0  0  0  0
  -82.7563   26.9490    3.1175 O   0  0  0  0  0  0  0  0  0  0  0  0
  -82.6172   29.0721    1.9476 C   0  0  0  0  0  0  0  0  0  0  0  0
  -83.2207   30.2327    1.4753 C   0  0  0  0  0  0  0  0  0  0  0  0
  -81.7646   26.7322    2.9901 H   0  0  0  0  0  0  0  0  0  0  0  0
 13 12  1  0  0  0
 13 11  1  0  0  0
 11  9  1  0  0  0
  9 10  1  0  0  0
  9  1  1  0  0  0
  1 23  1  0  0  0
 23 24  1  0  0  0
 24 25  2  0  0  0
 25 26  1  0  0  0
 26 27  2  0  0  0
 27 28  1  0  0  0
 27 29  1  0  0  0
 29 30  2  0  0  0
  1  2  1  0  0  0
  2  3  2  0  0  0
  3  4  1  0  0  0
  4  5  2  0  0  0
  5  6  1  0  0  0
  6  7  1  0  0  0
  6  8  2  0  0  0
 13 14  1  0  0  0
 14 18  1  0  0  0
 18 19  1  0  0  0
 19 20  2  0  0  0
 20 21  1  0  0  0
 21 22  2  0  0  0
 14 15  1  0  0  0
 15 16  2  0  0  0
 15 13  1  0  0  0
 30 24  1  0  0  0
  8  2  1  0  0  0
 22 18  1  0  0  0
 12 17  1  0  0  0
 28 31  1  0  0  0
M  END
> <minimizedAffinity>
-9.22518

> <CNNscore>
0.1630703211

> <CNNaffinity>
6.3207759857

> <CNN_VS>
1.0307309628

> <CNNaffinity_variance>
0.1709553003

$$$$
[H]Oc1c([H])c([H])c(C([H])([H])N(c2c([H])c([H])c([H])c(Br)c2[H])[C@]([H])(C([H])([H])[H])C([H])([H])[C@]2(O[H])C(=O)[C@@]2([H])n2c([H])nc([H])c2[H])c([H])c1[H]


 31 34  0  0  0  0  0  0  0  0999 V2000
  -87.1107   28.7248    0.4510 N   0  0  0  0  0  0  0  0  0  0  0  0
  -85.7931   28.8920    0.9616 C   0  0  0  0  0  0  0  0  0  0  0  0
  -85.2894   28.0196    1.9229 C   0  0  0  0  0  0  0  0  0  0  0  0
  -84.0199   28.1907    2.4659 C   0  0  0  0  0  0  0  0  0  0  0  0
  -83.2152   29.2367    2.0660 C   0  0  0  0  0  0  0  0  0  0  0  0
  -83.6931   30.1101    1.1179 C   0  0  0  0  0  0  0  0  0  0  0  0
  -82.5967   31.5613    0.5552 Br  0  0  0  0  0  0  0  0  0  0  0  0
  -84.9682   29.9245    0.5841 C   0  0  0  0  0  0  0  0  0  0  0  0
  -87.5436   29.0243   -0.8815 C   0  0  0  0  0  0  0  0  0  0  0  0
  -87.0939   28.1229   -1.9632 C   0  0  0  0  0  0  0  0  0  0  0  0
  -87.3992   30.5033   -1.1639 C   0  0  0  0  0  0  0  0  0  0  0  0
  -89.7086   30.9077   -1.9654 O   0  0  0  0  0  0  0  0  0  0  0  0
  -88.3455   30.9798   -2.2157 C   0  0  0  0  0  0  0  0  0  0  0  0
  -87.8964   32.2362   -2.9174 C   0  0  0  0  0  0  0  0  0  0  0  0
  -87.9151   30.8941   -3.6520 C   0  0  0  0  0  0  0  0  0  0  0  0
  -87.6707   30.4066   -4.7284 O   0  0  0  0  0  0  0  0  0  0  0  0
  -89.7903   30.8106   -0.9661 H   0  0  0  0  0  0  0  0  0  0  0  0
  -88.8223   33.1603   -3.4874 N   0  0  0  0  0  0  0  0  0  0  0  0
  -89.0257   34.4156   -2.9893 C   0  0  0  0  0  0  0  0  0  0  0  0
  -89.9580   35.0743   -3.7261 C   0  0  0  0  0  0  0  0  0  0  0  0
  -90.3396   34.2133   -4.6991 N   0  0  0  0  0  0  0  0  0  0  0  0
  -89.6432   33.0556   -4.5419 C   0  0  0  0  0  0  0  0  0  0  0  0
  -88.1185   28.2600    1.3811 C   0  0  0  0  0  0  0  0  0  0  0  0
  -88.9363   27.1428    0.9162 C   0  0  0  0  0  0  0  0  0  0  0  0
  -90.3039   27.4083    0.7826 C   0  0  0  0  0  0  0  0  0  0  0  0
  -91.2086   26.4590    0.3723 C   0  0  0  0  0  0  0  0  0  0  0  0
  -90.7917   25.1866    0.0707 C   0  0  0  0  0  0  0  0  0  0  0  0
  -91.7170   24.2469   -0.3408 O   0  0  0  0  0  0  0  0  0  0  0  0
  -89.4460   24.9156    0.1984 C   0  0  0  0  0  0  0  0  0  0  0  0
  -88.5388   25.8839    0.6153 C   0  0  0  0  0  0  0  0  0  0  0  0
  -91.4547   23.2864   -0.5761 H   0  0  0  0  0  0  0  0  0  0  0  0
 13 12  1  0  0  0
 13 11  1  0  0  0
 11  9  1  0  0  0
  9 10  1  0  0  0
  9  1  1  0  0  0
  1 23  1  0  0  0
 23 24  1  0  0  0
 24 25  2  0  0  0
 25 26  1  0  0  0
 26 27  2  0  0  0
 27 28  1  0  0  0
 27 29  1  0  0  0
 29 30  2  0  0  0
  1  2  1  0  0  0
  2  3  2  0  0  0
  3  4  1  0  0  0
  4  5  2  0  0  0
  5  6  1  0  0  0
  6  7  1  0  0  0
  6  8  2  0  0  0
 13 14  1  0  0  0
 14 18  1  0  0  0
 18 19  1  0  0  0
 19 20  2  0  0  0
 20 21  1  0  0  0
 21 22  2  0  0  0
 14 15  1  0  0  0
 15 16  2  0  0  0
 15 13  1  0  0  0
 30 24  1  0  0  0
  8  2  1  0  0  0
 22 18  1  0  0  0
 12 17  1  0  0  0
 28 31  1  0  0  0
M  END
> <minimizedAffinity>
-8.34068

> <CNNscore>
0.1545264572

> <CNNaffinity>
5.9338517189

> <CNN_VS>
0.9169371128

> <CNNaffinity_variance>
0.3244082630

$$$$
[H]OC(=O)c1c([H])c([H])c2c(c1[H])C([H])([H])C([H])([H])N(c1c([H])c([H])c(C([H])([H])[H])c(C(F)(F)F)c1[H])[C@@]2([H])C([H])(C([H])([H])[H])C([H])([H])[H]


 28 30  0  0  0  0  0  0  0  0999 V2000
  -88.6441   28.3372   -0.3518 C   0  0  0  0  0  0  0  0  0  0  0  0
  -88.5573   29.7417   -0.1715 N   0  0  0  0  0  0  0  0  0  0  0  0
  -89.8317   30.4140    0.1706 C   0  0  0  0  0  0  0  0  0  0  0  0
  -90.8826   29.4353    0.6363 C   0  0  0  0  0  0  0  0  0  0  0  0
  -90.1930   28.4047    1.4682 C   0  0  0  0  0  0  0  0  0  0  0  0
  -90.6842   28.0295    2.7080 C   0  0  0  0  0  0  0  0  0  0  0  0
  -90.0143   27.0643    3.4365 C   0  0  0  0  0  0  0  0  0  0  0  0
  -88.8594   26.4865    2.9131 C   0  0  0  0  0  0  0  0  0  0  0  0
  -88.3664   26.8573    1.6789 C   0  0  0  0  0  0  0  0  0  0  0  0
  -89.0462   27.8103    0.9831 C   0  0  0  0  0  0  0  0  0  0  0  0
  -87.4368   30.5983   -0.2321 C   0  0  0  0  0  0  0  0  0  0  0  0
  -87.5514   31.8339   -0.8870 C   0  0  0  0  0  0  0  0  0  0  0  0
  -86.5377   32.7243   -0.9701 C   0  0  0  0  0  0  0  0  0  0  0  0
  -85.3182   32.4493   -0.4010 C   0  0  0  0  0  0  0  0  0  0  0  0
  -84.2353   33.4492   -0.5127 C   0  0  0  0  0  0  0  0  0  0  0  0
  -85.1599   31.2537    0.2500 C   0  0  0  0  0  0  0  0  0  0  0  0
  -86.2126   30.3316    0.3355 C   0  0  0  0  0  0  0  0  0  0  0  0
  -83.8399   30.9574    0.8637 C   0  0  0  0  0  0  0  0  0  0  0  0
  -83.5766   31.7887    1.9534 F   0  0  0  0  0  0  0  0  0  0  0  0
  -82.8042   30.9935   -0.0464 F   0  0  0  0  0  0  0  0  0  0  0  0
  -83.8900   29.6751    1.4088 F   0  0  0  0  0  0  0  0  0  0  0  0
  -90.5270   26.6691    4.7360 C   0  0  0  0  0  0  0  0  0  0  0  0
  -89.9986   27.2407    5.8742 O   0  0  0  0  0  0  0  0  0  0  0  0
  -91.4370   25.8208    4.8273 O   0  0  0  0  0  0  0  0  0  0  0  0
  -90.2892   27.0583    6.8101 H   0  0  0  0  0  0  0  0  0  0  0  0
  -87.5510   28.2051   -2.5060 C   0  0  0  0  0  0  0  0  0  0  0  0
  -87.5953   27.6302   -1.0765 C   0  0  0  0  0  0  0  0  0  0  0  0
  -87.8821   26.1522   -1.2913 C   0  0  0  0  0  0  0  0  0  0  0  0
 26 27  1  0  0  0
 27 28  1  0  0  0
 27  1  1  0  0  0
  1  2  1  0  0  0
  2  3  1  0  0  0
  3  4  1  0  0  0
  4  5  1  0  0  0
  5  6  2  0  0  0
  6  7  1  0  0  0
  7  8  2  0  0  0
  8  9  1  0  0  0
  9 10  2  0  0  0
  7 22  1  0  0  0
 22 23  1  0  0  0
 22 24  2  0  0  0
  2 11  1  0  0  0
 11 12  2  0  0  0
 12 13  1  0  0  0
 13 14  2  0  0  0
 14 15  1  0  0  0
 14 16  1  0  0  0
 16 17  2  0  0  0
 16 18  1  0  0  0
 18 19  1  0  0  0
 18 20  1  0  0  0
 18 21  1  0  0  0
 10  1  1  0  0  0
 17 11  1  0  0  0
 10  5  1  0  0  0
 23 25  1  0  0  0
M  END
> <minimizedAffinity>
-9.88089

> <CNNscore>
0.4628331661

> <CNNaffinity>
6.1034975052

> <CNN_VS>
2.8249011040

> <CNNaffinity_variance>
0.2868768871

$$$$
[H]OC(=O)c1c([H])c([H])c2c(c1[H])C([H])([H])C([H])([H])N(c1c([H])c([H])c(C([H])([H])[H])c(C(F)(F)F)c1[H])[C@@]2([H])C([H])(C([H])([H])[H])C([H])([H])[H]


 28 30  0  0  0  0  0  0  0  0999 V2000
  -89.4348   27.5746    0.6747 C   0  0  0  0  0  0  0  0  0  0  0  0
  -88.1073   27.3948    0.2078 N   0  0  0  0  0  0  0  0  0  0  0  0
  -87.9564   26.4378   -0.9123 C   0  0  0  0  0  0  0  0  0  0  0  0
  -89.2744   26.1392   -1.5852 C   0  0  0  0  0  0  0  0  0  0  0  0
  -90.0498   27.4146   -1.6301 C   0  0  0  0  0  0  0  0  0  0  0  0
  -90.6616   27.8479   -2.7951 C   0  0  0  0  0  0  0  0  0  0  0  0
  -91.3756   29.0316   -2.7835 C   0  0  0  0  0  0  0  0  0  0  0  0
  -91.4678   29.7671   -1.6036 C   0  0  0  0  0  0  0  0  0  0  0  0
  -90.8600   29.3394   -0.4411 C   0  0  0  0  0  0  0  0  0  0  0  0
  -90.1632   28.1701   -0.4812 C   0  0  0  0  0  0  0  0  0  0  0  0
  -86.9071   28.0131    0.6204 C   0  0  0  0  0  0  0  0  0  0  0  0
  -86.0120   27.3014    1.4334 C   0  0  0  0  0  0  0  0  0  0  0  0
  -84.8307   27.8072    1.8529 C   0  0  0  0  0  0  0  0  0  0  0  0
  -84.4458   29.0751    1.4908 C   0  0  0  0  0  0  0  0  0  0  0  0
  -83.1460   29.5918    1.9689 C   0  0  0  0  0  0  0  0  0  0  0  0
  -85.2887   29.8078    0.6964 C   0  0  0  0  0  0  0  0  0  0  0  0
  -86.5134   29.2813    0.2620 C   0  0  0  0  0  0  0  0  0  0  0  0
  -84.8715   31.1793    0.3069 C   0  0  0  0  0  0  0  0  0  0  0  0
  -85.7295   31.7313   -0.6456 F   0  0  0  0  0  0  0  0  0  0  0  0
  -83.5599   31.2424   -0.1147 F   0  0  0  0  0  0  0  0  0  0  0  0
  -85.0070   32.0092    1.4192 F   0  0  0  0  0  0  0  0  0  0  0  0
  -92.0178   29.4880   -4.0030 C   0  0  0  0  0  0  0  0  0  0  0  0
  -91.2397   29.8715   -5.0747 O   0  0  0  0  0  0  0  0  0  0  0  0
  -93.2617   29.5345   -4.0852 O   0  0  0  0  0  0  0  0  0  0  0  0
  -91.5752   30.1796   -5.9614 H   0  0  0  0  0  0  0  0  0  0  0  0
  -89.1715   27.1217    3.0366 C   0  0  0  0  0  0  0  0  0  0  0  0
  -89.6709   28.1433    1.9960 C   0  0  0  0  0  0  0  0  0  0  0  0
  -91.1423   28.3172    2.3393 C   0  0  0  0  0  0  0  0  0  0  0  0
 26 27  1  0  0  0
 27 28  1  0  0  0
 27  1  1  0  0  0
  1  2  1  0  0  0
  2  3  1  0  0  0
  3  4  1  0  0  0
  4  5  1  0  0  0
  5  6  2  0  0  0
  6  7  1  0  0  0
  7  8  2  0  0  0
  8  9  1  0  0  0
  9 10  2  0  0  0
  7 22  1  0  0  0
 22 23  1  0  0  0
 22 24  2  0  0  0
  2 11  1  0  0  0
 11 12  2  0  0  0
 12 13  1  0  0  0
 13 14  2  0  0  0
 14 15  1  0  0  0
 14 16  1  0  0  0
 16 17  2  0  0  0
 16 18  1  0  0  0
 18 19  1  0  0  0
 18 20  1  0  0  0
 18 21  1  0  0  0
 10  1  1  0  0  0
 17 11  1  0  0  0
 10  5  1  0  0  0
 23 25  1  0  0  0
M  END
> <minimizedAffinity>
-8.48299

> <CNNscore>
0.3705906570

> <CNNaffinity>
6.0565481186

> <CNN_VS>
2.2445001602

> <CNNaffinity_variance>
0.1028265208

$$$$
[H]OC(=O)c1c([H])c([H])c2c(c1[H])C([H])([H])C([H])([H])N(c1c([H])c([H])c(C([H])([H])[H])c(C(F)(F)F)c1[H])[C@@]2([H])C([H])(C([H])([H])[H])C([H])([H])[H]


 28 30  0  0  0  0  0  0  0  0999 V2000
  -88.6814   28.0994   -0.2562 C   0  0  0  0  0  0  0  0  0  0  0  0
  -88.5874   29.5035   -0.0768 N   0  0  0  0  0  0  0  0  0  0  0  0
  -89.8582   30.1825    0.2660 C   0  0  0  0  0  0  0  0  0  0  0  0
  -90.9136   29.2093    0.7330 C   0  0  0  0  0  0  0  0  0  0  0  0
  -90.2286   28.1756    1.5649 C   0  0  0  0  0  0  0  0  0  0  0  0
  -90.7207   27.8035    2.8053 C   0  0  0  0  0  0  0  0  0  0  0  0
  -90.0552   26.8354    3.5338 C   0  0  0  0  0  0  0  0  0  0  0  0
  -88.9035   26.2515    3.0098 C   0  0  0  0  0  0  0  0  0  0  0  0
  -88.4097   26.6192    1.7751 C   0  0  0  0  0  0  0  0  0  0  0  0
  -89.0852   27.5752    1.0792 C   0  0  0  0  0  0  0  0  0  0  0  0
  -87.4626   30.3545   -0.1386 C   0  0  0  0  0  0  0  0  0  0  0  0
  -86.2669   29.9584    0.4794 C   0  0  0  0  0  0  0  0  0  0  0  0
  -85.1367   30.6991    0.4475 C   0  0  0  0  0  0  0  0  0  0  0  0
  -85.1102   31.9050   -0.2097 C   0  0  0  0  0  0  0  0  0  0  0  0
  -83.8546   32.6849   -0.2227 C   0  0  0  0  0  0  0  0  0  0  0  0
  -86.2557   32.3326   -0.8288 C   0  0  0  0  0  0  0  0  0  0  0  0
  -87.4269   31.5627   -0.7950 C   0  0  0  0  0  0  0  0  0  0  0  0
  -86.2257   33.6376   -1.5379 C   0  0  0  0  0  0  0  0  0  0  0  0
  -85.4582   33.5775   -2.7020 F   0  0  0  0  0  0  0  0  0  0  0  0
  -85.8171   34.6784   -0.7304 F   0  0  0  0  0  0  0  0  0  0  0  0
  -87.5154   33.9206   -1.9861 F   0  0  0  0  0  0  0  0  0  0  0  0
  -90.5688   26.4435    4.8339 C   0  0  0  0  0  0  0  0  0  0  0  0
  -89.8992   26.8379    5.9729 O   0  0  0  0  0  0  0  0  0  0  0  0
  -91.6060   25.7564    4.9249 O   0  0  0  0  0  0  0  0  0  0  0  0
  -90.1742   26.6428    6.9110 H   0  0  0  0  0  0  0  0  0  0  0  0
  -87.5271   28.0230   -2.3810 C   0  0  0  0  0  0  0  0  0  0  0  0
  -87.6367   27.3867   -0.9813 C   0  0  0  0  0  0  0  0  0  0  0  0
  -87.9699   25.9316   -1.2722 C   0  0  0  0  0  0  0  0  0  0  0  0
 26 27  1  0  0  0
 27 28  1  0  0  0
 27  1  1  0  0  0
  1  2  1  0  0  0
  2  3  1  0  0  0
  3  4  1  0  0  0
  4  5  1  0  0  0
  5  6  2  0  0  0
  6  7  1  0  0  0
  7  8  2  0  0  0
  8  9  1  0  0  0
  9 10  2  0  0  0
  7 22  1  0  0  0
 22 23  1  0  0  0
 22 24  2  0  0  0
  2 11  1  0  0  0
 11 12  2  0  0  0
 12 13  1  0  0  0
 13 14  2  0  0  0
 14 15  1  0  0  0
 14 16  1  0  0  0
 16 17  2  0  0  0
 16 18  1  0  0  0
 18 19  1  0  0  0
 18 20  1  0  0  0
 18 21  1  0  0  0
 10  1  1  0  0  0
 17 11  1  0  0  0
 10  5  1  0  0  0
 23 25  1  0  0  0
M  END
> <minimizedAffinity>
-8.73075

> <CNNscore>
0.3090141118

> <CNNaffinity>
6.0086116791

> <CNN_VS>
1.8567458391

> <CNNaffinity_variance>
0.2305388153

$$$$
[H]OC(=O)c1c([H])c([H])c2c(c1[H])C([H])([H])C([H])([H])N(c1c([H])c([H])c(C([H])([H])[H])c(C(F)(F)F)c1[H])[C@@]2([H])C([H])(C([H])([H])[H])C([H])([H])[H]


 28 30  0  0  0  0  0  0  0  0999 V2000
  -89.2711   27.4583    0.5041 C   0  0  0  0  0  0  0  0  0  0  0  0
  -87.9827   27.6749   -0.0489 N   0  0  0  0  0  0  0  0  0  0  0  0
  -87.4746   26.5837   -0.9117 C   0  0  0  0  0  0  0  0  0  0  0  0
  -88.5732   25.6416   -1.3413 C   0  0  0  0  0  0  0  0  0  0  0  0
  -89.7879   26.4677   -1.6095 C   0  0  0  0  0  0  0  0  0  0  0  0
  -90.5280   26.3093   -2.7699 C   0  0  0  0  0  0  0  0  0  0  0  0
  -91.6499   27.0923   -2.9681 C   0  0  0  0  0  0  0  0  0  0  0  0
  -92.0166   28.0253   -2.0002 C   0  0  0  0  0  0  0  0  0  0  0  0
  -91.2824   28.1866   -0.8432 C   0  0  0  0  0  0  0  0  0  0  0  0
  -90.1821   27.4021   -0.6741 C   0  0  0  0  0  0  0  0  0  0  0  0
  -87.1198   28.7864    0.0651 C   0  0  0  0  0  0  0  0  0  0  0  0
  -87.4284   29.9690   -0.6240 C   0  0  0  0  0  0  0  0  0  0  0  0
  -86.6720   31.0869   -0.5511 C   0  0  0  0  0  0  0  0  0  0  0  0
  -85.5373   31.1132    0.2226 C   0  0  0  0  0  0  0  0  0  0  0  0
  -84.7376   32.3552    0.2770 C   0  0  0  0  0  0  0  0  0  0  0  0
  -85.1965   29.9803    0.9145 C   0  0  0  0  0  0  0  0  0  0  0  0
  -85.9826   28.8219    0.8379 C   0  0  0  0  0  0  0  0  0  0  0  0
  -83.9683   30.0100    1.7495 C   0  0  0  0  0  0  0  0  0  0  0  0
  -84.0277   31.0078    2.7237 F   0  0  0  0  0  0  0  0  0  0  0  0
  -82.8136   30.1173    1.0030 F   0  0  0  0  0  0  0  0  0  0  0  0
  -83.9040   28.8204    2.4740 F   0  0  0  0  0  0  0  0  0  0  0  0
  -92.4274   26.9284   -4.1832 C   0  0  0  0  0  0  0  0  0  0  0  0
  -92.2905   27.8462   -5.2030 O   0  0  0  0  0  0  0  0  0  0  0  0
  -93.2132   25.9676   -4.3081 O   0  0  0  0  0  0  0  0  0  0  0  0
  -92.7579   27.8177   -6.0830 H   0  0  0  0  0  0  0  0  0  0  0  0
  -88.9570   27.6712    2.8935 C   0  0  0  0  0  0  0  0  0  0  0  0
  -89.7036   28.2269    1.6648 C   0  0  0  0  0  0  0  0  0  0  0  0
  -91.1706   28.0378    2.0187 C   0  0  0  0  0  0  0  0  0  0  0  0
 26 27  1  0  0  0
 27 28  1  0  0  0
 27  1  1  0  0  0
  1  2  1  0  0  0
  2  3  1  0  0  0
  3  4  1  0  0  0
  4  5  1  0  0  0
  5  6  2  0  0  0
  6  7  1  0  0  0
  7  8  2  0  0  0
  8  9  1  0  0  0
  9 10  2  0  0  0
  7 22  1  0  0  0
 22 23  1  0  0  0
 22 24  2  0  0  0
  2 11  1  0  0  0
 11 12  2  0  0  0
 12 13  1  0  0  0
 13 14  2  0  0  0
 14 15  1  0  0  0
 14 16  1  0  0  0
 16 17  2  0  0  0
 16 18  1  0  0  0
 18 19  1  0  0  0
 18 20  1  0  0  0
 18 21  1  0  0  0
 10  1  1  0  0  0
 17 11  1  0  0  0
 10  5  1  0  0  0
 23 25  1  0  0  0
M  END
> <minimizedAffinity>
-8.17310

> <CNNscore>
0.2652060091

> <CNNaffinity>
5.7460470200

> <CNN_VS>
1.5238862038

> <CNNaffinity_variance>
0.1473220885

$$$$
[H]OC(=O)c1c([H])c([H])c2c(c1[H])C([H])([H])C([H])([H])N(c1c([H])c([H])c(C([H])([H])[H])c(C(F)(F)F)c1[H])[C@@]2([H])C([H])(C([H])([H])[H])C([H])([H])[H]


 28 30  0  0  0  0  0  0  0  0999 V2000
  -89.0463   28.3236   -0.7440 C   0  0  0  0  0  0  0  0  0  0  0  0
  -89.5472   29.6382   -0.9275 N   0  0  0  0  0  0  0  0  0  0  0  0
  -91.0040   29.7944   -0.7113 C   0  0  0  0  0  0  0  0  0  0  0  0
  -91.5966   28.6209    0.0308 C   0  0  0  0  0  0  0  0  0  0  0  0
  -90.6045   28.2017    1.0651 C   0  0  0  0  0  0  0  0  0  0  0  0
  -90.9811   27.9783    2.3795 C   0  0  0  0  0  0  0  0  0  0  0  0
  -90.0267   27.5831    3.2982 C   0  0  0  0  0  0  0  0  0  0  0  0
  -88.7055   27.4166    2.8880 C   0  0  0  0  0  0  0  0  0  0  0  0
  -88.3258   27.6381    1.5802 C   0  0  0  0  0  0  0  0  0  0  0  0
  -89.2864   28.0267    0.6966 C   0  0  0  0  0  0  0  0  0  0  0  0
  -88.8679   30.8329   -1.2503 C   0  0  0  0  0  0  0  0  0  0  0  0
  -89.4177   31.6984   -2.2080 C   0  0  0  0  0  0  0  0  0  0  0  0
  -88.8475   32.8729   -2.5581 C   0  0  0  0  0  0  0  0  0  0  0  0
  -87.6725   33.2803   -1.9747 C   0  0  0  0  0  0  0  0  0  0  0  0
  -87.0812   34.5717   -2.3838 C   0  0  0  0  0  0  0  0  0  0  0  0
  -87.0988   32.4666   -1.0328 C   0  0  0  0  0  0  0  0  0  0  0  0
  -87.6919   31.2489   -0.6707 C   0  0  0  0  0  0  0  0  0  0  0  0
  -85.8274   32.9080   -0.4039 C   0  0  0  0  0  0  0  0  0  0  0  0
  -84.7965   33.0152   -1.3387 F   0  0  0  0  0  0  0  0  0  0  0  0
  -85.4496   32.1139    0.6585 F   0  0  0  0  0  0  0  0  0  0  0  0
  -86.0030   34.2074    0.0703 F   0  0  0  0  0  0  0  0  0  0  0  0
  -90.4187   27.3482    4.6762 C   0  0  0  0  0  0  0  0  0  0  0  0
  -90.0179   28.2339    5.6540 O   0  0  0  0  0  0  0  0  0  0  0  0
  -91.1117   26.3558    4.9777 O   0  0  0  0  0  0  0  0  0  0  0  0
  -90.2468   28.1796    6.6227 H   0  0  0  0  0  0  0  0  0  0  0  0
  -87.7898   28.3048   -2.8114 C   0  0  0  0  0  0  0  0  0  0  0  0
  -87.7565   27.9504   -1.3116 C   0  0  0  0  0  0  0  0  0  0  0  0
  -87.4873   26.4536   -1.3011 C   0  0  0  0  0  0  0  0  0  0  0  0
 26 27  1  0  0  0
 27 28  1  0  0  0
 27  1  1  0  0  0
  1  2  1  0  0  0
  2  3  1  0  0  0
  3  4  1  0  0  0
  4  5  1  0  0  0
  5  6  2  0  0  0
  6  7  1  0  0  0
  7  8  2  0  0  0
  8  9  1  0  0  0
  9 10  2  0  0  0
  7 22  1  0  0  0
 22 23  1  0  0  0
 22 24  2  0  0  0
  2 11  1  0  0  0
 11 12  2  0  0  0
 12 13  1  0  0  0
 13 14  2  0  0  0
 14 15  1  0  0  0
 14 16  1  0  0  0
 16 17  2  0  0  0
 16 18  1  0  0  0
 18 19  1  0  0  0
 18 20  1  0  0  0
 18 21  1  0  0  0
 10  1  1  0  0  0
 17 11  1  0  0  0
 10  5  1  0  0  0
 23 25  1  0  0  0
M  END
> <minimizedAffinity>
-8.47232

> <CNNscore>
0.2497275472

> <CNNaffinity>
5.7248787880

> <CNN_VS>
1.4296599627

> <CNNaffinity_variance>
0.3401710689

$$$$
[H]OC(=O)c1c([H])c([H])c2c(c1[H])C([H])([H])C([H])([H])N(c1c([H])c([H])c(C([H])([H])[H])c(C(F)(F)F)c1[H])[C@@]2([H])C([H])(C([H])([H])[H])C([H])([H])[H]


 28 30  0  0  0  0  0  0  0  0999 V2000
  -86.4470   27.8188    1.1189 C   0  0  0  0  0  0  0  0  0  0  0  0
  -87.0685   28.3035   -0.0606 N   0  0  0  0  0  0  0  0  0  0  0  0
  -87.7476   27.2766   -0.8839 C   0  0  0  0  0  0  0  0  0  0  0  0
  -87.9756   25.9954   -0.1188 C   0  0  0  0  0  0  0  0  0  0  0  0
  -88.3431   26.3714    1.2788 C   0  0  0  0  0  0  0  0  0  0  0  0
  -89.4358   25.8061    1.9159 C   0  0  0  0  0  0  0  0  0  0  0  0
  -89.7300   26.1808    3.2136 C   0  0  0  0  0  0  0  0  0  0  0  0
  -88.9249   27.1183    3.8575 C   0  0  0  0  0  0  0  0  0  0  0  0
  -87.8358   27.6840    3.2269 C   0  0  0  0  0  0  0  0  0  0  0  0
  -87.5693   27.2966    1.9489 C   0  0  0  0  0  0  0  0  0  0  0  0
  -87.1730   29.6208   -0.5574 C   0  0  0  0  0  0  0  0  0  0  0  0
  -88.2865   29.9759   -1.3337 C   0  0  0  0  0  0  0  0  0  0  0  0
  -88.4783   31.2195   -1.8274 C   0  0  0  0  0  0  0  0  0  0  0  0
  -87.5655   32.2164   -1.5831 C   0  0  0  0  0  0  0  0  0  0  0  0
  -87.8117   33.5635   -2.1396 C   0  0  0  0  0  0  0  0  0  0  0  0
  -86.4616   31.9157   -0.8286 C   0  0  0  0  0  0  0  0  0  0  0  0
  -86.2646   30.6252   -0.3171 C   0  0  0  0  0  0  0  0  0  0  0  0
  -85.4747   32.9946   -0.5666 C   0  0  0  0  0  0  0  0  0  0  0  0
  -86.0784   34.1275   -0.0186 F   0  0  0  0  0  0  0  0  0  0  0  0
  -84.7289   33.3223   -1.6794 F   0  0  0  0  0  0  0  0  0  0  0  0
  -84.5987   32.5537    0.4247 F   0  0  0  0  0  0  0  0  0  0  0  0
  -90.8745   25.5899    3.8835 C   0  0  0  0  0  0  0  0  0  0  0  0
  -91.4924   26.2814    4.9039 O   0  0  0  0  0  0  0  0  0  0  0  0
  -91.2985   24.4674    3.5427 O   0  0  0  0  0  0  0  0  0  0  0  0
  -92.2936   25.9795    5.4145 H   0  0  0  0  0  0  0  0  0  0  0  0
  -84.3750   27.6403    2.3551 C   0  0  0  0  0  0  0  0  0  0  0  0
  -85.4218   28.6156    1.7816 C   0  0  0  0  0  0  0  0  0  0  0  0
  -85.9205   29.3690    3.0050 C   0  0  0  0  0  0  0  0  0  0  0  0
 26 27  1  0  0  0
 27 28  1  0  0  0
 27  1  1  0  0  0
  1  2  1  0  0  0
  2  3  1  0  0  0
  3  4  1  0  0  0
  4  5  1  0  0  0
  5  6  2  0  0  0
  6  7  1  0  0  0
  7  8  2  0  0  0
  8  9  1  0  0  0
  9 10  2  0  0  0
  7 22  1  0  0  0
 22 23  1  0  0  0
 22 24  2  0  0  0
  2 11  1  0  0  0
 11 12  2  0  0  0
 12 13  1  0  0  0
 13 14  2  0  0  0
 14 15  1  0  0  0
 14 16  1  0  0  0
 16 17  2  0  0  0
 16 18  1  0  0  0
 18 19  1  0  0  0
 18 20  1  0  0  0
 18 21  1  0  0  0
 10  1  1  0  0  0
 17 11  1  0  0  0
 10  5  1  0  0  0
 23 25  1  0  0  0
M  END
> <minimizedAffinity>
-8.71677

> <CNNscore>
0.2352362275

> <CNNaffinity>
6.2261252403

> <CNN_VS>
1.4646102190

> <CNNaffinity_variance>
0.2541959882

$$$$
[H]OC(=O)c1c([H])c([H])c2c(c1[H])C([H])([H])C([H])([H])N(c1c([H])c([H])c(C([H])([H])[H])c(C(F)(F)F)c1[H])[C@@]2([H])C([H])(C([H])([H])[H])C([H])([H])[H]


 28 30  0  0  0  0  0  0  0  0999 V2000
  -88.1896   27.9531    0.2558 C   0  0  0  0  0  0  0  0  0  0  0  0
  -87.3457   28.6304   -0.6616 N   0  0  0  0  0  0  0  0  0  0  0  0
  -87.3839   28.1184   -2.0507 C   0  0  0  0  0  0  0  0  0  0  0  0
  -88.5865   27.2402   -2.2990 C   0  0  0  0  0  0  0  0  0  0  0  0
  -89.7373   27.8435   -1.5631 C   0  0  0  0  0  0  0  0  0  0  0  0
  -90.9657   28.0351   -2.1744 C   0  0  0  0  0  0  0  0  0  0  0  0
  -92.0029   28.5896   -1.4480 C   0  0  0  0  0  0  0  0  0  0  0  0
  -91.7961   28.9457   -0.1168 C   0  0  0  0  0  0  0  0  0  0  0  0
  -90.5744   28.7570    0.4960 C   0  0  0  0  0  0  0  0  0  0  0  0
  -89.5705   28.2089   -0.2432 C   0  0  0  0  0  0  0  0  0  0  0  0
  -86.4984   29.7426   -0.4666 C   0  0  0  0  0  0  0  0  0  0  0  0
  -86.9405   31.0182   -0.8486 C   0  0  0  0  0  0  0  0  0  0  0  0
  -86.2052   32.1391   -0.6751 C   0  0  0  0  0  0  0  0  0  0  0  0
  -84.9588   32.0749   -0.1014 C   0  0  0  0  0  0  0  0  0  0  0  0
  -84.1862   33.3231    0.0721 C   0  0  0  0  0  0  0  0  0  0  0  0
  -84.4854   30.8491    0.2882 C   0  0  0  0  0  0  0  0  0  0  0  0
  -85.2498   29.6877    0.1078 C   0  0  0  0  0  0  0  0  0  0  0  0
  -83.1367   30.7813    0.9072 C   0  0  0  0  0  0  0  0  0  0  0  0
  -83.0302   31.6278    2.0118 F   0  0  0  0  0  0  0  0  0  0  0  0
  -82.1196   31.0157    0.0058 F   0  0  0  0  0  0  0  0  0  0  0  0
  -82.9611   29.5014    1.4319 F   0  0  0  0  0  0  0  0  0  0  0  0
  -93.2913   28.7914   -2.0861 C   0  0  0  0  0  0  0  0  0  0  0  0
  -94.2040   29.6502   -1.5110 O   0  0  0  0  0  0  0  0  0  0  0  0
  -93.5745   28.1957   -3.1449 O   0  0  0  0  0  0  0  0  0  0  0  0
  -95.1044   29.8763   -1.8740 H   0  0  0  0  0  0  0  0  0  0  0  0
  -86.6649   27.2814    2.0100 C   0  0  0  0  0  0  0  0  0  0  0  0
  -87.9496   28.0704    1.6888 C   0  0  0  0  0  0  0  0  0  0  0  0
  -89.0090   27.3993    2.5493 C   0  0  0  0  0  0  0  0  0  0  0  0
 26 27  1  0  0  0
 27 28  1  0  0  0
 27  1  1  0  0  0
  1  2  1  0  0  0
  2  3  1  0  0  0
  3  4  1  0  0  0
  4  5  1  0  0  0
  5  6  2  0  0  0
  6  7  1  0  0  0
  7  8  2  0  0  0
  8  9  1  0  0  0
  9 10  2  0  0  0
  7 22  1  0  0  0
 22 23  1  0  0  0
 22 24  2  0  0  0
  2 11  1  0  0  0
 11 12  2  0  0  0
 12 13  1  0  0  0
 13 14  2  0  0  0
 14 15  1  0  0  0
 14 16  1  0  0  0
 16 17  2  0  0  0
 16 18  1  0  0  0
 18 19  1  0  0  0
 18 20  1  0  0  0
 18 21  1  0  0  0
 10  1  1  0  0  0
 17 11  1  0  0  0
 10  5  1  0  0  0
 23 25  1  0  0  0
M  END
> <minimizedAffinity>
-8.11031

> <CNNscore>
0.2213698924

> <CNNaffinity>
5.9384922981

> <CNN_VS>
1.3146034479

> <CNNaffinity_variance>
0.2177665234

$$$$
[H]OC(=O)c1c([H])c([H])c2c(c1[H])C([H])([H])C([H])([H])N(c1c([H])c([H])c(C([H])([H])[H])c(C(F)(F)F)c1[H])[C@@]2([H])C([H])(C([H])([H])[H])C([H])([H])[H]


 28 30  0  0  0  0  0  0  0  0999 V2000
  -89.4565   31.2768   -2.5958 C   0  0  0  0  0  0  0  0  0  0  0  0
  -88.2695   30.5001   -2.5709 N   0  0  0  0  0  0  0  0  0  0  0  0
  -87.6574   30.2405   -3.8943 C   0  0  0  0  0  0  0  0  0  0  0  0
  -88.1932   31.1668   -4.9590 C   0  0  0  0  0  0  0  0  0  0  0  0
  -88.3701   32.5103   -4.3318 C   0  0  0  0  0  0  0  0  0  0  0  0
  -87.8963   33.6607   -4.9414 C   0  0  0  0  0  0  0  0  0  0  0  0
  -88.0924   34.8822   -4.3246 C   0  0  0  0  0  0  0  0  0  0  0  0
  -88.7615   34.9360   -3.1035 C   0  0  0  0  0  0  0  0  0  0  0  0
  -89.2348   33.7929   -2.4927 C   0  0  0  0  0  0  0  0  0  0  0  0
  -89.0277   32.6034   -3.1224 C   0  0  0  0  0  0  0  0  0  0  0  0
  -87.5572   29.9635   -1.4766 C   0  0  0  0  0  0  0  0  0  0  0  0
  -87.7136   28.6070   -1.1539 C   0  0  0  0  0  0  0  0  0  0  0  0
  -87.0519   28.0064   -0.1397 C   0  0  0  0  0  0  0  0  0  0  0  0
  -86.1736   28.7188    0.6399 C   0  0  0  0  0  0  0  0  0  0  0  0
  -85.4684   28.0256    1.7387 C   0  0  0  0  0  0  0  0  0  0  0  0
  -85.9883   30.0478    0.3612 C   0  0  0  0  0  0  0  0  0  0  0  0
  -86.6754   30.6689   -0.6914 C   0  0  0  0  0  0  0  0  0  0  0  0
  -85.0392   30.8171    1.2063 C   0  0  0  0  0  0  0  0  0  0  0  0
  -85.1415   32.1908    0.9819 F   0  0  0  0  0  0  0  0  0  0  0  0
  -83.7343   30.3910    1.0727 F   0  0  0  0  0  0  0  0  0  0  0  0
  -85.4113   30.6541    2.5401 F   0  0  0  0  0  0  0  0  0  0  0  0
  -87.5970   36.0893   -4.9613 C   0  0  0  0  0  0  0  0  0  0  0  0
  -87.5102   37.2540   -4.2283 O   0  0  0  0  0  0  0  0  0  0  0  0
  -87.2519   36.0779   -6.1600 O   0  0  0  0  0  0  0  0  0  0  0  0
  -87.1668   38.1296   -4.5588 H   0  0  0  0  0  0  0  0  0  0  0  0
  -89.5693   31.7331   -0.2225 C   0  0  0  0  0  0  0  0  0  0  0  0
  -90.3635   31.2566   -1.4548 C   0  0  0  0  0  0  0  0  0  0  0  0
  -90.8333   29.8639   -1.0641 C   0  0  0  0  0  0  0  0  0  0  0  0
 26 27  1  0  0  0
 27 28  1  0  0  0
 27  1  1  0  0  0
  1  2  1  0  0  0
  2  3  1  0  0  0
  3  4  1  0  0  0
  4  5  1  0  0  0
  5  6  2  0  0  0
  6  7  1  0  0  0
  7  8  2  0  0  0
  8  9  1  0  0  0
  9 10  2  0  0  0
  7 22  1  0  0  0
 22 23  1  0  0  0
 22 24  2  0  0  0
  2 11  1  0  0  0
 11 12  2  0  0  0
 12 13  1  0  0  0
 13 14  2  0  0  0
 14 15  1  0  0  0
 14 16  1  0  0  0
 16 17  2  0  0  0
 16 18  1  0  0  0
 18 19  1  0  0  0
 18 20  1  0  0  0
 18 21  1  0  0  0
 10  1  1  0  0  0
 17 11  1  0  0  0
 10  5  1  0  0  0
 23 25  1  0  0  0
M  END
> <minimizedAffinity>
-8.20969

> <CNNscore>
0.2199327350

> <CNNaffinity>
5.6939053535

> <CNN_VS>
1.2522761822

> <CNNaffinity_variance>
0.1939175278

$$$$
[H]OC(=O)c1c([H])c([H])c2c(c1[H])C([H])([H])C([H])([H])N(c1c([H])c([H])c(C([H])([H])[H])c(C(F)(F)F)c1[H])[C@@]2([H])C([H])(C([H])([H])[H])C([H])([H])[H]


 28 30  0  0  0  0  0  0  0  0999 V2000
  -89.2209   28.5469   -1.3506 C   0  0  0  0  0  0  0  0  0  0  0  0
  -88.9116   29.5412   -0.3871 N   0  0  0  0  0  0  0  0  0  0  0  0
  -90.0208   29.9029    0.5250 C   0  0  0  0  0  0  0  0  0  0  0  0
  -91.1303   28.8794    0.5033 C   0  0  0  0  0  0  0  0  0  0  0  0
  -90.4917   27.5334    0.4026 C   0  0  0  0  0  0  0  0  0  0  0  0
  -90.8643   26.4923    1.2373 C   0  0  0  0  0  0  0  0  0  0  0  0
  -90.2493   25.2620    1.0990 C   0  0  0  0  0  0  0  0  0  0  0  0
  -89.2676   25.0900    0.1252 C   0  0  0  0  0  0  0  0  0  0  0  0
  -88.8932   26.1240   -0.7080 C   0  0  0  0  0  0  0  0  0  0  0  0
  -89.5154   27.3249   -0.5498 C   0  0  0  0  0  0  0  0  0  0  0  0
  -87.6980   30.2174   -0.1364 C   0  0  0  0  0  0  0  0  0  0  0  0
  -86.7328   29.6148    0.6845 C   0  0  0  0  0  0  0  0  0  0  0  0
  -85.5353   30.1799    0.9562 C   0  0  0  0  0  0  0  0  0  0  0  0
  -85.2032   31.4024    0.4252 C   0  0  0  0  0  0  0  0  0  0  0  0
  -83.8836   31.9864    0.7452 C   0  0  0  0  0  0  0  0  0  0  0  0
  -86.1155   32.0287   -0.3835 C   0  0  0  0  0  0  0  0  0  0  0  0
  -87.3569   31.4408   -0.6644 C   0  0  0  0  0  0  0  0  0  0  0  0
  -85.7553   33.3514   -0.9558 C   0  0  0  0  0  0  0  0  0  0  0  0
  -86.7173   33.8042   -1.8600 F   0  0  0  0  0  0  0  0  0  0  0  0
  -84.4984   33.3669   -1.5233 F   0  0  0  0  0  0  0  0  0  0  0  0
  -85.7752   34.2922    0.0731 F   0  0  0  0  0  0  0  0  0  0  0  0
  -90.6379   24.1692    1.9723 C   0  0  0  0  0  0  0  0  0  0  0  0
  -90.0681   22.9262    1.7953 O   0  0  0  0  0  0  0  0  0  0  0  0
  -91.4791   24.3483    2.8759 O   0  0  0  0  0  0  0  0  0  0  0  0
  -90.2464   22.1162    2.3484 H   0  0  0  0  0  0  0  0  0  0  0  0
  -86.9558   28.0849   -2.0640 C   0  0  0  0  0  0  0  0  0  0  0  0
  -88.3883   28.3999   -2.5381 C   0  0  0  0  0  0  0  0  0  0  0  0
  -88.2281   29.6809   -3.3421 C   0  0  0  0  0  0  0  0  0  0  0  0
 26 27  1  0  0  0
 27 28  1  0  0  0
 27  1  1  0  0  0
  1  2  1  0  0  0
  2  3  1  0  0  0
  3  4  1  0  0  0
  4  5  1  0  0  0
  5  6  2  0  0  0
  6  7  1  0  0  0
  7  8  2  0  0  0
  8  9  1  0  0  0
  9 10  2  0  0  0
  7 22  1  0  0  0
 22 23  1  0  0  0
 22 24  2  0  0  0
  2 11  1  0  0  0
 11 12  2  0  0  0
 12 13  1  0  0  0
 13 14  2  0  0  0
 14 15  1  0  0  0
 14 16  1  0  0  0
 16 17  2  0  0  0
 16 18  1  0  0  0
 18 19  1  0  0  0
 18 20  1  0  0  0
 18 21  1  0  0  0
 10  1  1  0  0  0
 17 11  1  0  0  0
 10  5  1  0  0  0
 23 25  1  0  0  0
M  END
> <minimizedAffinity>
-8.53225

> <CNNscore>
0.1913587451

> <CNNaffinity>
5.8067059517

> <CNN_VS>
1.1111639738

> <CNNaffinity_variance>
0.2134564817

$$$$
[H]Oc1c([H])c([H])c2c([H])c([H])c([H])c(-c3c([H])c([H])nc([H])c3[H])c2c1[H]


 18 20  0  0  0  0  0  0  0  0999 V2000
  -88.8854   30.6091   -0.2728 O   0  0  0  0  0  0  0  0  0  0  0  0
  -87.6788   31.3180   -0.3650 C   0  0  0  0  0  0  0  0  0  0  0  0
  -87.5800   32.5460   -0.9367 C   0  0  0  0  0  0  0  0  0  0  0  0
  -86.3980   33.2451   -1.0295 C   0  0  0  0  0  0  0  0  0  0  0  0
  -85.2533   32.6499   -0.5056 C   0  0  0  0  0  0  0  0  0  0  0  0
  -84.0337   33.2723   -0.5670 C   0  0  0  0  0  0  0  0  0  0  0  0
  -82.8888   32.6973   -0.0651 C   0  0  0  0  0  0  0  0  0  0  0  0
  -82.9828   31.4561    0.5161 C   0  0  0  0  0  0  0  0  0  0  0  0
  -84.2027   30.7734    0.6072 C   0  0  0  0  0  0  0  0  0  0  0  0
  -85.3124   31.3818    0.0945 C   0  0  0  0  0  0  0  0  0  0  0  0
  -86.5327   30.7353    0.1531 C   0  0  0  0  0  0  0  0  0  0  0  0
  -89.4467   30.7615    0.5559 H   0  0  0  0  0  0  0  0  0  0  0  0
  -84.2176   29.4783    1.2770 C   0  0  0  0  0  0  0  0  0  0  0  0
  -83.0572   29.1454    1.9615 C   0  0  0  0  0  0  0  0  0  0  0  0
  -82.9783   27.9676    2.6584 C   0  0  0  0  0  0  0  0  0  0  0  0
  -84.0256   27.1356    2.6782 N   0  0  0  0  0  0  0  0  0  0  0  0
  -85.1747   27.4462    2.0110 C   0  0  0  0  0  0  0  0  0  0  0  0
  -85.2673   28.6125    1.3147 C   0  0  0  0  0  0  0  0  0  0  0  0
  1  2  1  0  0  0
  2  3  2  0  0  0
  3  4  1  0  0  0
  4  5  2  0  0  0
  5  6  1  0  0  0
  6  7  2  0  0  0
  7  8  1  0  0  0
  8  9  2  0  0  0
  9 13  1  0  0  0
 13 14  2  0  0  0
 14 15  1  0  0  0
 15 16  2  0  0  0
 16 17  1  0  0  0
 17 18  2  0  0  0
  9 10  1  0  0  0
 10 11  2  0  0  0
 11  2  1  0  0  0
 10  5  1  0  0  0
 18 13  1  0  0  0
  1 12  1  0  0  0
M  END
> <minimizedAffinity>
-9.60833

> <CNNscore>
0.8384023905

> <CNNaffinity>
5.6540603638

> <CNN_VS>
4.7403779030

> <CNNaffinity_variance>
0.1029929295

$$$$
[H]Oc1c([H])c([H])c2c([H])c([H])c([H])c(-c3c([H])c([H])nc([H])c3[H])c2c1[H]


 18 20  0  0  0  0  0  0  0  0999 V2000
  -85.5574   26.9251    2.3150 O   0  0  0  0  0  0  0  0  0  0  0  0
  -84.7614   28.0324    1.9874 C   0  0  0  0  0  0  0  0  0  0  0  0
  -83.4648   28.1557    2.3725 C   0  0  0  0  0  0  0  0  0  0  0  0
  -82.6802   29.2406    2.0534 C   0  0  0  0  0  0  0  0  0  0  0  0
  -83.2593   30.2556    1.2962 C   0  0  0  0  0  0  0  0  0  0  0  0
  -82.5520   31.3758    0.9447 C   0  0  0  0  0  0  0  0  0  0  0  0
  -83.1084   32.3948    0.2063 C   0  0  0  0  0  0  0  0  0  0  0  0
  -84.4188   32.2748   -0.1878 C   0  0  0  0  0  0  0  0  0  0  0  0
  -85.1897   31.1525    0.1418 C   0  0  0  0  0  0  0  0  0  0  0  0
  -84.5966   30.1666    0.8771 C   0  0  0  0  0  0  0  0  0  0  0  0
  -85.3274   29.0489    1.2339 C   0  0  0  0  0  0  0  0  0  0  0  0
  -85.5545   26.1479    1.6662 H   0  0  0  0  0  0  0  0  0  0  0  0
  -86.5598   31.0897   -0.3532 C   0  0  0  0  0  0  0  0  0  0  0  0
  -87.2136   32.3092   -0.4606 C   0  0  0  0  0  0  0  0  0  0  0  0
  -88.4920   32.3684   -0.9519 C   0  0  0  0  0  0  0  0  0  0  0  0
  -89.1116   31.2445   -1.3294 N   0  0  0  0  0  0  0  0  0  0  0  0
  -88.4846   30.0366   -1.2310 C   0  0  0  0  0  0  0  0  0  0  0  0
  -87.2149   29.9627   -0.7450 C   0  0  0  0  0  0  0  0  0  0  0  0
  1  2  1  0  0  0
  2  3  2  0  0  0
  3  4  1  0  0  0
  4  5  2  0  0  0
  5  6  1  0  0  0
  6  7  2  0  0  0
  7  8  1  0  0  0
  8  9  2  0  0  0
  9 13  1  0  0  0
 13 14  2  0  0  0
 14 15  1  0  0  0
 15 16  2  0  0  0
 16 17  1  0  0  0
 17 18  2  0  0  0
  9 10  1  0  0  0
 10 11  2  0  0  0
 11  2  1  0  0  0
 10  5  1  0  0  0
 18 13  1  0  0  0
  1 12  1  0  0  0
M  END
> <minimizedAffinity>
-9.23821

> <CNNscore>
0.6930054426

> <CNNaffinity>
5.3399486542

> <CNN_VS>
3.7006134987

> <CNNaffinity_variance>
0.3162487149

$$$$
[H]Oc1c([H])c([H])c2c([H])c([H])c([H])c(-c3c([H])c([H])nc([H])c3[H])c2c1[H]


 18 20  0  0  0  0  0  0  0  0999 V2000
  -90.1357   29.4765   -0.2826 O   0  0  0  0  0  0  0  0  0  0  0  0
  -89.1187   30.4295   -0.4393 C   0  0  0  0  0  0  0  0  0  0  0  0
  -89.3109   31.6284   -1.0477 C   0  0  0  0  0  0  0  0  0  0  0  0
  -88.3158   32.5664   -1.2038 C   0  0  0  0  0  0  0  0  0  0  0  0
  -87.0526   32.2560   -0.7068 C   0  0  0  0  0  0  0  0  0  0  0  0
  -86.0029   33.1287   -0.8307 C   0  0  0  0  0  0  0  0  0  0  0  0
  -84.7447   32.8371   -0.3563 C   0  0  0  0  0  0  0  0  0  0  0  0
  -84.5446   31.6268    0.2619 C   0  0  0  0  0  0  0  0  0  0  0  0
  -85.5803   30.6964    0.4172 C   0  0  0  0  0  0  0  0  0  0  0  0
  -86.8120   31.0277   -0.0702 C   0  0  0  0  0  0  0  0  0  0  0  0
  -87.8571   30.1313    0.0516 C   0  0  0  0  0  0  0  0  0  0  0  0
  -90.6914   29.5307    0.5619 H   0  0  0  0  0  0  0  0  0  0  0  0
  -85.2886   29.4539    1.1225 C   0  0  0  0  0  0  0  0  0  0  0  0
  -86.1710   28.4095    0.8845 C   0  0  0  0  0  0  0  0  0  0  0  0
  -85.9677   27.1852    1.4666 C   0  0  0  0  0  0  0  0  0  0  0  0
  -84.9133   26.9972    2.2680 N   0  0  0  0  0  0  0  0  0  0  0  0
  -84.0352   28.0123    2.5136 C   0  0  0  0  0  0  0  0  0  0  0  0
  -84.2245   29.2336    1.9422 C   0  0  0  0  0  0  0  0  0  0  0  0
  1  2  1  0  0  0
  2  3  2  0  0  0
  3  4  1  0  0  0
  4  5  2  0  0  0
  5  6  1  0  0  0
  6  7  2  0  0  0
  7  8  1  0  0  0
  8  9  2  0  0  0
  9 13  1  0  0  0
 13 14  2  0  0  0
 14 15  1  0  0  0
 15 16  2  0  0  0
 16 17  1  0  0  0
 17 18  2  0  0  0
  9 10  1  0  0  0
 10 11  2  0  0  0
 11  2  1  0  0  0
 10  5  1  0  0  0
 18 13  1  0  0  0
  1 12  1  0  0  0
M  END
> <minimizedAffinity>
-8.05737

> <CNNscore>
0.6514525414

> <CNNaffinity>
5.4053564072

> <CNN_VS>
3.5213332176

> <CNNaffinity_variance>
0.1128280014

$$$$
[H]Oc1c([H])c([H])c2c([H])c([H])c([H])c(-c3c([H])c([H])nc([H])c3[H])c2c1[H]


 18 20  0  0  0  0  0  0  0  0999 V2000
  -84.3632   26.9712    2.4233 O   0  0  0  0  0  0  0  0  0  0  0  0
  -84.3270   28.2801    1.9207 C   0  0  0  0  0  0  0  0  0  0  0  0
  -83.3068   29.1425    2.1658 C   0  0  0  0  0  0  0  0  0  0  0  0
  -83.2674   30.4277    1.6748 C   0  0  0  0  0  0  0  0  0  0  0  0
  -84.3352   30.8510    0.8878 C   0  0  0  0  0  0  0  0  0  0  0  0
  -84.3807   32.1189    0.3690 C   0  0  0  0  0  0  0  0  0  0  0  0
  -85.4313   32.5605   -0.4019 C   0  0  0  0  0  0  0  0  0  0  0  0
  -86.4652   31.6921   -0.6549 C   0  0  0  0  0  0  0  0  0  0  0  0
  -86.4720   30.3849   -0.1514 C   0  0  0  0  0  0  0  0  0  0  0  0
  -85.4094   29.9904    0.6099 C   0  0  0  0  0  0  0  0  0  0  0  0
  -85.3847   28.7124    1.1360 C   0  0  0  0  0  0  0  0  0  0  0  0
  -83.9484   26.2466    1.8508 H   0  0  0  0  0  0  0  0  0  0  0  0
  -87.5904   29.5180   -0.5038 C   0  0  0  0  0  0  0  0  0  0  0  0
  -87.5113   28.9172   -1.7523 C   0  0  0  0  0  0  0  0  0  0  0  0
  -88.4906   28.0526   -2.1678 C   0  0  0  0  0  0  0  0  0  0  0  0
  -89.5273   27.7874   -1.3651 N   0  0  0  0  0  0  0  0  0  0  0  0
  -89.6219   28.3689   -0.1343 C   0  0  0  0  0  0  0  0  0  0  0  0
  -88.6567   29.2295    0.2915 C   0  0  0  0  0  0  0  0  0  0  0  0
  1  2  1  0  0  0
  2  3  2  0  0  0
  3  4  1  0  0  0
  4  5  2  0  0  0
  5  6  1  0  0  0
  6  7  2  0  0  0
  7  8  1  0  0  0
  8  9  2  0  0  0
  9 13  1  0  0  0
 13 14  2  0  0  0
 14 15  1  0  0  0
 15 16  2  0  0  0
 16 17  1  0  0  0
 17 18  2  0  0  0
  9 10  1  0  0  0
 10 11  2  0  0  0
 11  2  1  0  0  0
 10  5  1  0  0  0
 18 13  1  0  0  0
  1 12  1  0  0  0
M  END
> <minimizedAffinity>
-8.40949

> <CNNscore>
0.6121038795

> <CNNaffinity>
5.4220695496

> <CNN_VS>
3.3188698292

> <CNNaffinity_variance>
0.2166769207

$$$$
[H]Oc1c([H])c([H])c2c([H])c([H])c([H])c(-c3c([H])c([H])nc([H])c3[H])c2c1[H]


 18 20  0  0  0  0  0  0  0  0999 V2000
  -88.8410   28.5345    0.5319 O   0  0  0  0  0  0  0  0  0  0  0  0
  -88.7521   29.7741   -0.1181 C   0  0  0  0  0  0  0  0  0  0  0  0
  -89.7863   30.3323   -0.7990 C   0  0  0  0  0  0  0  0  0  0  0  0
  -89.7033   31.5483   -1.4384 C   0  0  0  0  0  0  0  0  0  0  0  0
  -88.4905   32.2295   -1.3748 C   0  0  0  0  0  0  0  0  0  0  0  0
  -88.3191   33.4406   -1.9935 C   0  0  0  0  0  0  0  0  0  0  0  0
  -87.1262   34.1250   -1.9519 C   0  0  0  0  0  0  0  0  0  0  0  0
  -86.0771   33.5664   -1.2630 C   0  0  0  0  0  0  0  0  0  0  0  0
  -86.1949   32.3320   -0.6112 C   0  0  0  0  0  0  0  0  0  0  0  0
  -87.3968   31.6878   -0.6804 C   0  0  0  0  0  0  0  0  0  0  0  0
  -87.5496   30.4613   -0.0614 C   0  0  0  0  0  0  0  0  0  0  0  0
  -89.1426   28.5420    1.4984 H   0  0  0  0  0  0  0  0  0  0  0  0
  -85.0429   31.8334    0.1309 C   0  0  0  0  0  0  0  0  0  0  0  0
  -83.8058   32.0836   -0.4461 C   0  0  0  0  0  0  0  0  0  0  0  0
  -82.6548   31.6922    0.1872 C   0  0  0  0  0  0  0  0  0  0  0  0
  -82.7255   31.0660    1.3672 N   0  0  0  0  0  0  0  0  0  0  0  0
  -83.9329   30.8115    1.9496 C   0  0  0  0  0  0  0  0  0  0  0  0
  -85.0843   31.1946    1.3321 C   0  0  0  0  0  0  0  0  0  0  0  0
  1  2  1  0  0  0
  2  3  2  0  0  0
  3  4  1  0  0  0
  4  5  2  0  0  0
  5  6  1  0  0  0
  6  7  2  0  0  0
  7  8  1  0  0  0
  8  9  2  0  0  0
  9 13  1  0  0  0
 13 14  2  0  0  0
 14 15  1  0  0  0
 15 16  2  0  0  0
 16 17  1  0  0  0
 17 18  2  0  0  0
  9 10  1  0  0  0
 10 11  2  0  0  0
 11  2  1  0  0  0
 10  5  1  0  0  0
 18 13  1  0  0  0
  1 12  1  0  0  0
M  END
> <minimizedAffinity>
-7.38334

> <CNNscore>
0.4978836179

> <CNNaffinity>
5.0830106735

> <CNN_VS>
2.5307476521

> <CNNaffinity_variance>
0.1325560808

$$$$
[H]Oc1c([H])c([H])c2c([H])c([H])c([H])c(-c3c([H])c([H])nc([H])c3[H])c2c1[H]


 18 20  0  0  0  0  0  0  0  0999 V2000
  -94.1245   23.7333   -5.2064 O   0  0  0  0  0  0  0  0  0  0  0  0
  -93.8965   25.1049   -5.3904 C   0  0  0  0  0  0  0  0  0  0  0  0
  -94.4111   25.8110   -6.4302 C   0  0  0  0  0  0  0  0  0  0  0  0
  -94.1898   27.1569   -6.6146 C   0  0  0  0  0  0  0  0  0  0  0  0
  -93.3959   27.8147   -5.6787 C   0  0  0  0  0  0  0  0  0  0  0  0
  -93.1161   29.1516   -5.7939 C   0  0  0  0  0  0  0  0  0  0  0  0
  -92.3255   29.8180   -4.8862 C   0  0  0  0  0  0  0  0  0  0  0  0
  -91.8038   29.1096   -3.8313 C   0  0  0  0  0  0  0  0  0  0  0  0
  -92.0565   27.7420   -3.6627 C   0  0  0  0  0  0  0  0  0  0  0  0
  -92.8454   27.1216   -4.5885 C   0  0  0  0  0  0  0  0  0  0  0  0
  -93.1077   25.7701   -4.4648 C   0  0  0  0  0  0  0  0  0  0  0  0
  -94.9326   23.4707   -4.6560 H   0  0  0  0  0  0  0  0  0  0  0  0
  -91.4960   27.0784   -2.4915 C   0  0  0  0  0  0  0  0  0  0  0  0
  -90.1998   26.6040   -2.6357 C   0  0  0  0  0  0  0  0  0  0  0  0
  -89.5633   25.9982   -1.5836 C   0  0  0  0  0  0  0  0  0  0  0  0
  -90.1956   25.8639   -0.4125 N   0  0  0  0  0  0  0  0  0  0  0  0
  -91.4701   26.3240   -0.2522 C   0  0  0  0  0  0  0  0  0  0  0  0
  -92.1146   26.9279   -1.2884 C   0  0  0  0  0  0  0  0  0  0  0  0
  1  2  1  0  0  0
  2  3  2  0  0  0
  3  4  1  0  0  0
  4  5  2  0  0  0
  5  6  1  0  0  0
  6  7  2  0  0  0
  7  8  1  0  0  0
  8  9  2  0  0  0
  9 13  1  0  0  0
 13 14  2  0  0  0
 14 15  1  0  0  0
 15 16  2  0  0  0
 16 17  1  0  0  0
 17 18  2  0  0  0
  9 10  1  0  0  0
 10 11  2  0  0  0
 11  2  1  0  0  0
 10  5  1  0  0  0
 18 13  1  0  0  0
  1 12  1  0  0  0
M  END
> <minimizedAffinity>
-4.45878

> <CNNscore>
0.4762924314

> <CNNaffinity>
3.9059402943

> <CNN_VS>
1.8603698015

> <CNNaffinity_variance>
0.1114700884

$$$$
[H]Oc1c([H])c([H])c2c([H])c([H])c([H])c(-c3c([H])c([H])nc([H])c3[H])c2c1[H]


 18 20  0  0  0  0  0  0  0  0999 V2000
  -82.9794   26.8929    3.1878 O   0  0  0  0  0  0  0  0  0  0  0  0
  -83.4265   27.9965    2.4466 C   0  0  0  0  0  0  0  0  0  0  0  0
  -82.6403   29.0656    2.1578 C   0  0  0  0  0  0  0  0  0  0  0  0
  -83.0749   30.1506    1.4310 C   0  0  0  0  0  0  0  0  0  0  0  0
  -84.3905   30.1369    0.9749 C   0  0  0  0  0  0  0  0  0  0  0  0
  -84.9068   31.1823    0.2542 C   0  0  0  0  0  0  0  0  0  0  0  0
  -86.2068   31.1933   -0.1965 C   0  0  0  0  0  0  0  0  0  0  0  0
  -87.0062   30.1138    0.0908 C   0  0  0  0  0  0  0  0  0  0  0  0
  -86.5322   29.0175    0.8228 C   0  0  0  0  0  0  0  0  0  0  0  0
  -85.2361   29.0504    1.2510 C   0  0  0  0  0  0  0  0  0  0  0  0
  -84.7344   27.9937    1.9875 C   0  0  0  0  0  0  0  0  0  0  0  0
  -82.5646   26.1281    2.6702 H   0  0  0  0  0  0  0  0  0  0  0  0
  -87.4377   27.8964    1.0463 C   0  0  0  0  0  0  0  0  0  0  0  0
  -87.5537   27.0017   -0.0083 C   0  0  0  0  0  0  0  0  0  0  0  0
  -88.3486   25.8913    0.1103 C   0  0  0  0  0  0  0  0  0  0  0  0
  -89.0154   25.6698    1.2486 N   0  0  0  0  0  0  0  0  0  0  0  0
  -88.9136   26.5385    2.2959 C   0  0  0  0  0  0  0  0  0  0  0  0
  -88.1277   27.6455    2.1924 C   0  0  0  0  0  0  0  0  0  0  0  0
  1  2  1  0  0  0
  2  3  2  0  0  0
  3  4  1  0  0  0
  4  5  2  0  0  0
  5  6  1  0  0  0
  6  7  2  0  0  0
  7  8  1  0  0  0
  8  9  2  0  0  0
  9 13  1  0  0  0
 13 14  2  0  0  0
 14 15  1  0  0  0
 15 16  2  0  0  0
 16 17  1  0  0  0
 17 18  2  0  0  0
  9 10  1  0  0  0
 10 11  2  0  0  0
 11  2  1  0  0  0
 10  5  1  0  0  0
 18 13  1  0  0  0
  1 12  1  0  0  0
M  END
> <minimizedAffinity>
-8.95314

> <CNNscore>
0.4538611770

> <CNNaffinity>
5.3344697952

> <CNN_VS>
2.4211087227

> <CNNaffinity_variance>
0.1374497861

$$$$
[H]Oc1c([H])c([H])c2c([H])c([H])c([H])c(-c3c([H])c([H])nc([H])c3[H])c2c1[H]


 18 20  0  0  0  0  0  0  0  0999 V2000
  -82.8569   33.3851   -0.3733 O   0  0  0  0  0  0  0  0  0  0  0  0
  -83.3296   32.1835    0.1742 C   0  0  0  0  0  0  0  0  0  0  0  0
  -82.5903   31.4036    1.0048 C   0  0  0  0  0  0  0  0  0  0  0  0
  -83.0501   30.2237    1.5442 C   0  0  0  0  0  0  0  0  0  0  0  0
  -84.3415   29.8224    1.2124 C   0  0  0  0  0  0  0  0  0  0  0  0
  -84.8725   28.6552    1.6965 C   0  0  0  0  0  0  0  0  0  0  0  0
  -86.1421   28.2352    1.3726 C   0  0  0  0  0  0  0  0  0  0  0  0
  -86.8954   29.0208    0.5346 C   0  0  0  0  0  0  0  0  0  0  0  0
  -86.4048   30.2237    0.0103 C   0  0  0  0  0  0  0  0  0  0  0  0
  -85.1392   30.6003    0.3577 C   0  0  0  0  0  0  0  0  0  0  0  0
  -84.6138   31.7741   -0.1491 C   0  0  0  0  0  0  0  0  0  0  0  0
  -83.0245   34.2305    0.1579 H   0  0  0  0  0  0  0  0  0  0  0  0
  -87.2880   31.0150   -0.8384 C   0  0  0  0  0  0  0  0  0  0  0  0
  -87.5749   30.4655   -2.0801 C   0  0  0  0  0  0  0  0  0  0  0  0
  -88.4258   31.1080   -2.9415 C   0  0  0  0  0  0  0  0  0  0  0  0
  -88.9821   32.2704   -2.5826 N   0  0  0  0  0  0  0  0  0  0  0  0
  -88.7117   32.8258   -1.3659 C   0  0  0  0  0  0  0  0  0  0  0  0
  -87.8685   32.1988   -0.5001 C   0  0  0  0  0  0  0  0  0  0  0  0
  1  2  1  0  0  0
  2  3  2  0  0  0
  3  4  1  0  0  0
  4  5  2  0  0  0
  5  6  1  0  0  0
  6  7  2  0  0  0
  7  8  1  0  0  0
  8  9  2  0  0  0
  9 13  1  0  0  0
 13 14  2  0  0  0
 14 15  1  0  0  0
 15 16  2  0  0  0
 16 17  1  0  0  0
 17 18  2  0  0  0
  9 10  1  0  0  0
 10 11  2  0  0  0
 11  2  1  0  0  0
 10  5  1  0  0  0
 18 13  1  0  0  0
  1 12  1  0  0  0
M  END
> <minimizedAffinity>
-8.51422

> <CNNscore>
0.4494381547

> <CNNaffinity>
5.0527701378

> <CNN_VS>
2.2709076405

> <CNNaffinity_variance>
0.2733212113

$$$$
[H]Oc1c([H])c([H])c2c([H])c([H])c([H])c(-c3c([H])c([H])nc([H])c3[H])c2c1[H]


 18 20  0  0  0  0  0  0  0  0999 V2000
  -84.0489   33.5611   -1.2804 O   0  0  0  0  0  0  0  0  0  0  0  0
  -83.8651   32.4807   -0.4052 C   0  0  0  0  0  0  0  0  0  0  0  0
  -82.7911   32.3655    0.4182 C   0  0  0  0  0  0  0  0  0  0  0  0
  -82.6067   31.3069    1.2783 C   0  0  0  0  0  0  0  0  0  0  0  0
  -83.5798   30.3111    1.2942 C   0  0  0  0  0  0  0  0  0  0  0  0
  -83.4679   29.2170    2.1123 C   0  0  0  0  0  0  0  0  0  0  0  0
  -84.4124   28.2168    2.1356 C   0  0  0  0  0  0  0  0  0  0  0  0
  -85.5020   28.3288    1.3065 C   0  0  0  0  0  0  0  0  0  0  0  0
  -85.6690   29.4246    0.4499 C   0  0  0  0  0  0  0  0  0  0  0  0
  -84.7059   30.3925    0.4593 C   0  0  0  0  0  0  0  0  0  0  0  0
  -84.8274   31.4833   -0.3809 C   0  0  0  0  0  0  0  0  0  0  0  0
  -84.5552   34.3618   -0.9234 H   0  0  0  0  0  0  0  0  0  0  0  0
  -86.8763   29.4821   -0.3658 C   0  0  0  0  0  0  0  0  0  0  0  0
  -86.9179   28.5995   -1.4360 C   0  0  0  0  0  0  0  0  0  0  0  0
  -88.0234   28.5434   -2.2445 C   0  0  0  0  0  0  0  0  0  0  0  0
  -89.0669   29.3438   -1.9999 N   0  0  0  0  0  0  0  0  0  0  0  0
  -89.0440   30.2179   -0.9523 C   0  0  0  0  0  0  0  0  0  0  0  0
  -87.9527   30.2844   -0.1410 C   0  0  0  0  0  0  0  0  0  0  0  0
  1  2  1  0  0  0
  2  3  2  0  0  0
  3  4  1  0  0  0
  4  5  2  0  0  0
  5  6  1  0  0  0
  6  7  2  0  0  0
  7  8  1  0  0  0
  8  9  2  0  0  0
  9 13  1  0  0  0
 13 14  2  0  0  0
 14 15  1  0  0  0
 15 16  2  0  0  0
 16 17  1  0  0  0
 17 18  2  0  0  0
  9 10  1  0  0  0
 10 11  2  0  0  0
 11  2  1  0  0  0
 10  5  1  0  0  0
 18 13  1  0  0  0
  1 12  1  0  0  0
M  END
> <minimizedAffinity>
-8.61239

> <CNNscore>
0.4196027219

> <CNNaffinity>
5.1509003639

> <CNN_VS>
2.1613318920

> <CNNaffinity_variance>
0.2313683033

$$$$
[H]OC(=O)c1nc(C(=O)c2c([H])c(C(F)(F)F)c3c(c2[H])C(F)(F)C3([H])[H])c([H])nc1C([H])([H])[H]


 27 29  0  0  0  0  0  0  0  0999 V2000
  -84.9173   31.3725    0.2418 C   0  0  0  0  0  0  0  0  0  0  0  0
  -85.2722   30.1144    0.6799 C   0  0  0  0  0  0  0  0  0  0  0  0
  -86.5593   29.6995    0.5519 C   0  0  0  0  0  0  0  0  0  0  0  0
  -87.5042   30.5267   -0.0101 C   0  0  0  0  0  0  0  0  0  0  0  0
  -87.1975   31.8163   -0.4726 C   0  0  0  0  0  0  0  0  0  0  0  0
  -85.8926   32.1884   -0.3235 C   0  0  0  0  0  0  0  0  0  0  0  0
  -86.2045   28.3839    1.1782 C   0  0  0  0  0  0  0  0  0  0  0  0
  -86.4255   27.3793    0.2618 F   0  0  0  0  0  0  0  0  0  0  0  0
  -86.7962   28.1822    2.4084 F   0  0  0  0  0  0  0  0  0  0  0  0
  -84.7878   28.8584    1.3116 C   0  0  0  0  0  0  0  0  0  0  0  0
  -83.2551   32.0813    1.6943 F   0  0  0  0  0  0  0  0  0  0  0  0
  -83.5251   31.8678    0.3619 C   0  0  0  0  0  0  0  0  0  0  0  0
  -82.6194   30.9835   -0.2014 F   0  0  0  0  0  0  0  0  0  0  0  0
  -83.4410   33.1150   -0.2664 F   0  0  0  0  0  0  0  0  0  0  0  0
  -88.2399   32.6221   -1.0694 C   0  0  0  0  0  0  0  0  0  0  0  0
  -89.3851   32.6775   -0.4622 O   0  0  0  0  0  0  0  0  0  0  0  0
  -88.1617   33.3932   -2.2963 C   0  0  0  0  0  0  0  0  0  0  0  0
  -89.2437   34.1098   -2.7067 N   0  0  0  0  0  0  0  0  0  0  0  0
  -89.2617   34.8765   -3.8104 C   0  0  0  0  0  0  0  0  0  0  0  0
  -88.1316   34.9663   -4.6004 C   0  0  0  0  0  0  0  0  0  0  0  0
  -88.1101   35.8052   -5.8335 C   0  0  0  0  0  0  0  0  0  0  0  0
  -87.0555   34.2638   -4.2058 N   0  0  0  0  0  0  0  0  0  0  0  0
  -87.0415   33.4899   -3.0881 C   0  0  0  0  0  0  0  0  0  0  0  0
  -90.4661   35.6154   -4.1783 C   0  0  0  0  0  0  0  0  0  0  0  0
  -91.4171   35.0236   -4.9948 O   0  0  0  0  0  0  0  0  0  0  0  0
  -90.7127   36.7808   -3.7988 O   0  0  0  0  0  0  0  0  0  0  0  0
  -91.3841   34.0250   -5.2423 H   0  0  0  0  0  0  0  0  0  0  0  0
 11 12  1  0  0  0
 12  1  1  0  0  0
  1  2  2  0  0  0
  2  3  1  0  0  0
  3  4  2  0  0  0
  4  5  1  0  0  0
  5 15  1  0  0  0
 15 16  2  0  0  0
 15 17  1  0  0  0
 17 18  2  0  0  0
 18 19  1  0  0  0
 19 24  1  0  0  0
 24 25  1  0  0  0
 24 26  2  0  0  0
 19 20  2  0  0  0
 20 21  1  0  0  0
 20 22  1  0  0  0
 22 23  2  0  0  0
  5  6  2  0  0  0
  3  7  1  0  0  0
  7  8  1  0  0  0
  7  9  1  0  0  0
  7 10  1  0  0  0
 12 13  1  0  0  0
 12 14  1  0  0  0
  6  1  1  0  0  0
 10  2  1  0  0  0
 23 17  1  0  0  0
 25 27  1  0  0  0
M  END
> <minimizedAffinity>
-8.57471

> <CNNscore>
0.3745438159

> <CNNaffinity>
5.5893840790

> <CNN_VS>
2.0934691429

> <CNNaffinity_variance>
0.4215119481

$$$$
[H]OC(=O)c1nc(C(=O)c2c([H])c(C(F)(F)F)c3c(c2[H])C(F)(F)C3([H])[H])c([H])nc1C([H])([H])[H]


 27 29  0  0  0  0  0  0  0  0999 V2000
  -89.5158   27.0842    2.8018 C   0  0  0  0  0  0  0  0  0  0  0  0
  -89.8684   26.1846    1.8184 C   0  0  0  0  0  0  0  0  0  0  0  0
  -88.9718   25.8678    0.8483 C   0  0  0  0  0  0  0  0  0  0  0  0
  -87.7203   26.4393    0.8444 C   0  0  0  0  0  0  0  0  0  0  0  0
  -87.3093   27.3605    1.8209 C   0  0  0  0  0  0  0  0  0  0  0  0
  -88.2432   27.6468    2.7745 C   0  0  0  0  0  0  0  0  0  0  0  0
  -89.9684   24.9391    0.2212 C   0  0  0  0  0  0  0  0  0  0  0  0
  -89.4680   23.6562    0.2588 F   0  0  0  0  0  0  0  0  0  0  0  0
  -90.4004   25.3531   -1.0223 F   0  0  0  0  0  0  0  0  0  0  0  0
  -90.9458   25.3003    1.3002 C   0  0  0  0  0  0  0  0  0  0  0  0
  -91.4065   28.3088    3.3496 F   0  0  0  0  0  0  0  0  0  0  0  0
  -90.4617   27.4603    3.8796 C   0  0  0  0  0  0  0  0  0  0  0  0
  -91.0500   26.3447    4.4532 F   0  0  0  0  0  0  0  0  0  0  0  0
  -89.7655   28.1934    4.8467 F   0  0  0  0  0  0  0  0  0  0  0  0
  -85.9710   27.9058    1.7626 C   0  0  0  0  0  0  0  0  0  0  0  0
  -85.0094   27.2082    2.2841 O   0  0  0  0  0  0  0  0  0  0  0  0
  -85.5612   29.1706    1.1806 C   0  0  0  0  0  0  0  0  0  0  0  0
  -86.4381   29.8664    0.4062 N   0  0  0  0  0  0  0  0  0  0  0  0
  -86.1644   31.0577   -0.1528 C   0  0  0  0  0  0  0  0  0  0  0  0
  -84.9282   31.6413    0.0494 C   0  0  0  0  0  0  0  0  0  0  0  0
  -84.5843   32.9615   -0.5535 C   0  0  0  0  0  0  0  0  0  0  0  0
  -84.0531   30.9645    0.8131 N   0  0  0  0  0  0  0  0  0  0  0  0
  -84.3344   29.7598    1.3771 C   0  0  0  0  0  0  0  0  0  0  0  0
  -87.1647   31.7387   -0.9697 C   0  0  0  0  0  0  0  0  0  0  0  0
  -87.9725   32.7124   -0.4034 O   0  0  0  0  0  0  0  0  0  0  0  0
  -87.3533   31.5020   -2.1827 O   0  0  0  0  0  0  0  0  0  0  0  0
  -87.8041   33.0849    0.5413 H   0  0  0  0  0  0  0  0  0  0  0  0
 11 12  1  0  0  0
 12  1  1  0  0  0
  1  2  2  0  0  0
  2  3  1  0  0  0
  3  4  2  0  0  0
  4  5  1  0  0  0
  5 15  1  0  0  0
 15 16  2  0  0  0
 15 17  1  0  0  0
 17 18  2  0  0  0
 18 19  1  0  0  0
 19 24  1  0  0  0
 24 25  1  0  0  0
 24 26  2  0  0  0
 19 20  2  0  0  0
 20 21  1  0  0  0
 20 22  1  0  0  0
 22 23  2  0  0  0
  5  6  2  0  0  0
  3  7  1  0  0  0
  7  8  1  0  0  0
  7  9  1  0  0  0
  7 10  1  0  0  0
 12 13  1  0  0  0
 12 14  1  0  0  0
  6  1  1  0  0  0
 10  2  1  0  0  0
 23 17  1  0  0  0
 25 27  1  0  0  0
M  END
> <minimizedAffinity>
-7.95714

> <CNNscore>
0.3467822075

> <CNNaffinity>
5.9220690727

> <CNN_VS>
2.0536682606

> <CNNaffinity_variance>
0.3534437716

$$$$
[H]OC(=O)c1nc(C(=O)c2c([H])c(C(F)(F)F)c3c(c2[H])C(F)(F)C3([H])[H])c([H])nc1C([H])([H])[H]


 27 29  0  0  0  0  0  0  0  0999 V2000
  -86.2926   29.5726    0.5210 C   0  0  0  0  0  0  0  0  0  0  0  0
  -85.0491   30.1308    0.7284 C   0  0  0  0  0  0  0  0  0  0  0  0
  -84.8239   31.4189    0.3605 C   0  0  0  0  0  0  0  0  0  0  0  0
  -85.8274   32.1634   -0.2154 C   0  0  0  0  0  0  0  0  0  0  0  0
  -87.1110   31.6451   -0.4493 C   0  0  0  0  0  0  0  0  0  0  0  0
  -87.2897   30.3482   -0.0628 C   0  0  0  0  0  0  0  0  0  0  0  0
  -83.4096   31.3180    0.8488 C   0  0  0  0  0  0  0  0  0  0  0  0
  -83.2276   32.2155    1.8779 F   0  0  0  0  0  0  0  0  0  0  0  0
  -82.4716   31.3999   -0.1600 F   0  0  0  0  0  0  0  0  0  0  0  0
  -83.6760   29.8971    1.2490 C   0  0  0  0  0  0  0  0  0  0  0  0
  -85.4156   27.5910    1.3450 F   0  0  0  0  0  0  0  0  0  0  0  0
  -86.5836   28.1707    0.9057 C   0  0  0  0  0  0  0  0  0  0  0  0
  -87.5753   28.1027    1.8709 F   0  0  0  0  0  0  0  0  0  0  0  0
  -86.9717   27.4667   -0.2394 F   0  0  0  0  0  0  0  0  0  0  0  0
  -88.1211   32.4938   -1.0421 C   0  0  0  0  0  0  0  0  0  0  0  0
  -89.2685   32.5794   -0.4425 O   0  0  0  0  0  0  0  0  0  0  0  0
  -88.0076   33.2789   -2.2574 C   0  0  0  0  0  0  0  0  0  0  0  0
  -89.0384   33.2896   -3.1462 N   0  0  0  0  0  0  0  0  0  0  0  0
  -89.0416   34.0056   -4.2836 C   0  0  0  0  0  0  0  0  0  0  0  0
  -87.9491   34.7894   -4.6025 C   0  0  0  0  0  0  0  0  0  0  0  0
  -87.9123   35.5984   -5.8551 C   0  0  0  0  0  0  0  0  0  0  0  0
  -86.9242   34.7882   -3.7326 N   0  0  0  0  0  0  0  0  0  0  0  0
  -86.9256   34.0628   -2.5827 C   0  0  0  0  0  0  0  0  0  0  0  0
  -90.1915   33.9616   -5.1822 C   0  0  0  0  0  0  0  0  0  0  0  0
  -90.2679   32.9807   -6.1586 O   0  0  0  0  0  0  0  0  0  0  0  0
  -91.1448   34.7691   -5.1352 O   0  0  0  0  0  0  0  0  0  0  0  0
  -89.6154   32.1852   -6.1906 H   0  0  0  0  0  0  0  0  0  0  0  0
 11 12  1  0  0  0
 12  1  1  0  0  0
  1  2  2  0  0  0
  2  3  1  0  0  0
  3  4  2  0  0  0
  4  5  1  0  0  0
  5 15  1  0  0  0
 15 16  2  0  0  0
 15 17  1  0  0  0
 17 18  2  0  0  0
 18 19  1  0  0  0
 19 24  1  0  0  0
 24 25  1  0  0  0
 24 26  2  0  0  0
 19 20  2  0  0  0
 20 21  1  0  0  0
 20 22  1  0  0  0
 22 23  2  0  0  0
  5  6  2  0  0  0
  3  7  1  0  0  0
  7  8  1  0  0  0
  7  9  1  0  0  0
  7 10  1  0  0  0
 12 13  1  0  0  0
 12 14  1  0  0  0
  6  1  1  0  0  0
 10  2  1  0  0  0
 23 17  1  0  0  0
 25 27  1  0  0  0
M  END
> <minimizedAffinity>
-8.96285

> <CNNscore>
0.2863780856

> <CNNaffinity>
5.4619894028

> <CNN_VS>
1.5641940832

> <CNNaffinity_variance>
0.5343529582

$$$$
[H]OC(=O)c1nc(C(=O)c2c([H])c(C(F)(F)F)c3c(c2[H])C(F)(F)C3([H])[H])c([H])nc1C([H])([H])[H]


 27 29  0  0  0  0  0  0  0  0999 V2000
  -85.4537   30.2266    1.2937 C   0  0  0  0  0  0  0  0  0  0  0  0
  -86.2756   29.2341    0.8034 C   0  0  0  0  0  0  0  0  0  0  0  0
  -86.9944   29.4582   -0.3272 C   0  0  0  0  0  0  0  0  0  0  0  0
  -86.9053   30.6659   -0.9803 C   0  0  0  0  0  0  0  0  0  0  0  0
  -86.0847   31.7101   -0.5250 C   0  0  0  0  0  0  0  0  0  0  0  0
  -85.3817   31.4383    0.6131 C   0  0  0  0  0  0  0  0  0  0  0  0
  -87.5752   28.0784   -0.2392 C   0  0  0  0  0  0  0  0  0  0  0  0
  -87.1903   27.3605   -1.3502 F   0  0  0  0  0  0  0  0  0  0  0  0
  -88.9319   28.0670    0.0127 F   0  0  0  0  0  0  0  0  0  0  0  0
  -86.7741   27.8482    1.0079 C   0  0  0  0  0  0  0  0  0  0  0  0
  -84.0112   31.2087    2.8200 F   0  0  0  0  0  0  0  0  0  0  0  0
  -84.6515   30.0271    2.5244 C   0  0  0  0  0  0  0  0  0  0  0  0
  -85.4387   29.6011    3.5820 F   0  0  0  0  0  0  0  0  0  0  0  0
  -83.6502   29.0878    2.2553 F   0  0  0  0  0  0  0  0  0  0  0  0
  -86.0280   32.9456   -1.2748 C   0  0  0  0  0  0  0  0  0  0  0  0
  -84.8938   33.5738   -1.3224 O   0  0  0  0  0  0  0  0  0  0  0  0
  -87.1117   33.5871   -1.9962 C   0  0  0  0  0  0  0  0  0  0  0  0
  -86.8232   34.4582   -3.0016 N   0  0  0  0  0  0  0  0  0  0  0  0
  -87.7535   35.0798   -3.7462 C   0  0  0  0  0  0  0  0  0  0  0  0
  -89.0936   34.8445   -3.5046 C   0  0  0  0  0  0  0  0  0  0  0  0
  -90.1573   35.5145   -4.3075 C   0  0  0  0  0  0  0  0  0  0  0  0
  -89.3921   33.9856   -2.5146 N   0  0  0  0  0  0  0  0  0  0  0  0
  -88.4477   33.3584   -1.7641 C   0  0  0  0  0  0  0  0  0  0  0  0
  -87.3572   35.9996   -4.8086 C   0  0  0  0  0  0  0  0  0  0  0  0
  -87.0494   37.3162   -4.5032 O   0  0  0  0  0  0  0  0  0  0  0  0
  -87.2711   35.6780   -6.0137 O   0  0  0  0  0  0  0  0  0  0  0  0
  -86.9473   37.6458   -3.5334 H   0  0  0  0  0  0  0  0  0  0  0  0
 11 12  1  0  0  0
 12  1  1  0  0  0
  1  2  2  0  0  0
  2  3  1  0  0  0
  3  4  2  0  0  0
  4  5  1  0  0  0
  5 15  1  0  0  0
 15 16  2  0  0  0
 15 17  1  0  0  0
 17 18  2  0  0  0
 18 19  1  0  0  0
 19 24  1  0  0  0
 24 25  1  0  0  0
 24 26  2  0  0  0
 19 20  2  0  0  0
 20 21  1  0  0  0
 20 22  1  0  0  0
 22 23  2  0  0  0
  5  6  2  0  0  0
  3  7  1  0  0  0
  7  8  1  0  0  0
  7  9  1  0  0  0
  7 10  1  0  0  0
 12 13  1  0  0  0
 12 14  1  0  0  0
  6  1  1  0  0  0
 10  2  1  0  0  0
 23 17  1  0  0  0
 25 27  1  0  0  0
M  END
> <minimizedAffinity>
-8.70287

> <CNNscore>
0.2843696475

> <CNNaffinity>
5.8069815636

> <CNN_VS>
1.6513292789

> <CNNaffinity_variance>
0.2230073661

$$$$
[H]OC(=O)c1nc(C(=O)c2c([H])c(C(F)(F)F)c3c(c2[H])C(F)(F)C3([H])[H])c([H])nc1C([H])([H])[H]


 27 29  0  0  0  0  0  0  0  0999 V2000
  -86.4574   31.0323   -0.0329 C   0  0  0  0  0  0  0  0  0  0  0  0
  -85.1559   31.4748    0.0723 C   0  0  0  0  0  0  0  0  0  0  0  0
  -84.2348   30.7011    0.7033 C   0  0  0  0  0  0  0  0  0  0  0  0
  -84.5952   29.4844    1.2350 C   0  0  0  0  0  0  0  0  0  0  0  0
  -85.9053   28.9859    1.1563 C   0  0  0  0  0  0  0  0  0  0  0  0
  -86.7947   29.7975    0.5132 C   0  0  0  0  0  0  0  0  0  0  0  0
  -83.1791   31.7337    0.4425 C   0  0  0  0  0  0  0  0  0  0  0  0
  -82.2040   31.1825   -0.3595 F   0  0  0  0  0  0  0  0  0  0  0  0
  -82.7075   32.3407    1.5885 F   0  0  0  0  0  0  0  0  0  0  0  0
  -84.2092   32.5750   -0.2511 C   0  0  0  0  0  0  0  0  0  0  0  0
  -88.7303   31.4208   -0.2733 F   0  0  0  0  0  0  0  0  0  0  0  0
  -87.4963   31.8432   -0.7119 C   0  0  0  0  0  0  0  0  0  0  0  0
  -87.3156   33.1977   -0.4829 F   0  0  0  0  0  0  0  0  0  0  0  0
  -87.4465   31.5717   -2.0834 F   0  0  0  0  0  0  0  0  0  0  0  0
  -86.2057   27.6893    1.7225 C   0  0  0  0  0  0  0  0  0  0  0  0
  -85.2412   27.0431    2.3017 O   0  0  0  0  0  0  0  0  0  0  0  0
  -87.4846   27.0033    1.7198 C   0  0  0  0  0  0  0  0  0  0  0  0
  -88.4207   27.3287    2.6528 N   0  0  0  0  0  0  0  0  0  0  0  0
  -89.6427   26.7726    2.7158 C   0  0  0  0  0  0  0  0  0  0  0  0
  -90.0051   25.8090    1.7941 C   0  0  0  0  0  0  0  0  0  0  0  0
  -91.3508   25.1668    1.8295 C   0  0  0  0  0  0  0  0  0  0  0  0
  -89.0896   25.4789    0.8666 N   0  0  0  0  0  0  0  0  0  0  0  0
  -87.8548   26.0445    0.8062 C   0  0  0  0  0  0  0  0  0  0  0  0
  -90.5890   27.1814    3.7499 C   0  0  0  0  0  0  0  0  0  0  0  0
  -91.3973   28.2891    3.5475 O   0  0  0  0  0  0  0  0  0  0  0  0
  -90.7300   26.5871    4.8407 O   0  0  0  0  0  0  0  0  0  0  0  0
  -91.4658   28.7600    2.6348 H   0  0  0  0  0  0  0  0  0  0  0  0
 11 12  1  0  0  0
 12  1  1  0  0  0
  1  2  2  0  0  0
  2  3  1  0  0  0
  3  4  2  0  0  0
  4  5  1  0  0  0
  5 15  1  0  0  0
 15 16  2  0  0  0
 15 17  1  0  0  0
 17 18  2  0  0  0
 18 19  1  0  0  0
 19 24  1  0  0  0
 24 25  1  0  0  0
 24 26  2  0  0  0
 19 20  2  0  0  0
 20 21  1  0  0  0
 20 22  1  0  0  0
 22 23  2  0  0  0
  5  6  2  0  0  0
  3  7  1  0  0  0
  7  8  1  0  0  0
  7  9  1  0  0  0
  7 10  1  0  0  0
 12 13  1  0  0  0
 12 14  1  0  0  0
  6  1  1  0  0  0
 10  2  1  0  0  0
 23 17  1  0  0  0
 25 27  1  0  0  0
M  END
> <minimizedAffinity>
-9.51317

> <CNNscore>
0.2744860649

> <CNNaffinity>
5.8850088120

> <CNN_VS>
1.6153528690

> <CNNaffinity_variance>
0.2570268214

$$$$
[H]OC(=O)c1nc(C(=O)c2c([H])c(C(F)(F)F)c3c(c2[H])C(F)(F)C3([H])[H])c([H])nc1C([H])([H])[H]


 27 29  0  0  0  0  0  0  0  0999 V2000
  -85.3587   29.5782    1.3677 C   0  0  0  0  0  0  0  0  0  0  0  0
  -86.5012   28.8420    1.1364 C   0  0  0  0  0  0  0  0  0  0  0  0
  -87.4409   29.3167    0.2779 C   0  0  0  0  0  0  0  0  0  0  0  0
  -87.2568   30.5232   -0.3573 C   0  0  0  0  0  0  0  0  0  0  0  0
  -86.1132   31.3128   -0.1583 C   0  0  0  0  0  0  0  0  0  0  0  0
  -85.1975   30.7948    0.7116 C   0  0  0  0  0  0  0  0  0  0  0  0
  -88.2857   28.1017    0.5205 C   0  0  0  0  0  0  0  0  0  0  0  0
  -88.4243   27.4108   -0.6633 F   0  0  0  0  0  0  0  0  0  0  0  0
  -89.4720   28.3765    1.1696 F   0  0  0  0  0  0  0  0  0  0  0  0
  -87.2376   27.5927    1.4651 C   0  0  0  0  0  0  0  0  0  0  0  0
  -84.0968   27.7610    2.0606 F   0  0  0  0  0  0  0  0  0  0  0  0
  -84.3070   29.1003    2.2968 C   0  0  0  0  0  0  0  0  0  0  0  0
  -83.1358   29.8274    2.1579 F   0  0  0  0  0  0  0  0  0  0  0  0
  -84.7899   29.2030    3.6059 F   0  0  0  0  0  0  0  0  0  0  0  0
  -85.9804   32.5618   -0.8756 C   0  0  0  0  0  0  0  0  0  0  0  0
  -85.0463   33.3799   -0.4996 O   0  0  0  0  0  0  0  0  0  0  0  0
  -86.7856   33.0257   -1.9903 C   0  0  0  0  0  0  0  0  0  0  0  0
  -87.5134   32.1281   -2.7096 N   0  0  0  0  0  0  0  0  0  0  0  0
  -88.3107   32.4612   -3.7391 C   0  0  0  0  0  0  0  0  0  0  0  0
  -88.4226   33.7853   -4.1182 C   0  0  0  0  0  0  0  0  0  0  0  0
  -89.2957   34.1969   -5.2553 C   0  0  0  0  0  0  0  0  0  0  0  0
  -87.7093   34.6822   -3.4153 N   0  0  0  0  0  0  0  0  0  0  0  0
  -86.9044   34.3408   -2.3742 C   0  0  0  0  0  0  0  0  0  0  0  0
  -89.0596   31.4339   -4.4572 C   0  0  0  0  0  0  0  0  0  0  0  0
  -88.5468   30.8964   -5.6274 O   0  0  0  0  0  0  0  0  0  0  0  0
  -90.1657   30.9873   -4.0830 O   0  0  0  0  0  0  0  0  0  0  0  0
  -87.5856   31.0851   -5.9438 H   0  0  0  0  0  0  0  0  0  0  0  0
 11 12  1  0  0  0
 12  1  1  0  0  0
  1  2  2  0  0  0
  2  3  1  0  0  0
  3  4  2  0  0  0
  4  5  1  0  0  0
  5 15  1  0  0  0
 15 16  2  0  0  0
 15 17  1  0  0  0
 17 18  2  0  0  0
 18 19  1  0  0  0
 19 24  1  0  0  0
 24 25  1  0  0  0
 24 26  2  0  0  0
 19 20  2  0  0  0
 20 21  1  0  0  0
 20 22  1  0  0  0
 22 23  2  0  0  0
  5  6  2  0  0  0
  3  7  1  0  0  0
  7  8  1  0  0  0
  7  9  1  0  0  0
  7 10  1  0  0  0
 12 13  1  0  0  0
 12 14  1  0  0  0
  6  1  1  0  0  0
 10  2  1  0  0  0
 23 17  1  0  0  0
 25 27  1  0  0  0
M  END
> <minimizedAffinity>
-9.09631

> <CNNscore>
0.2638541758

> <CNNaffinity>
5.8077363968

> <CNN_VS>
1.5323954821

> <CNNaffinity_variance>
0.2905473709

$$$$
[H]OC(=O)c1nc(C(=O)c2c([H])c(C(F)(F)F)c3c(c2[H])C(F)(F)C3([H])[H])c([H])nc1C([H])([H])[H]


 27 29  0  0  0  0  0  0  0  0999 V2000
  -88.2300   21.7137    5.3055 C   0  0  0  0  0  0  0  0  0  0  0  0
  -87.6105   22.2006    6.4369 C   0  0  0  0  0  0  0  0  0  0  0  0
  -87.6777   23.5278    6.7181 C   0  0  0  0  0  0  0  0  0  0  0  0
  -88.3579   24.3826    5.8817 C   0  0  0  0  0  0  0  0  0  0  0  0
  -89.0061   23.9405    4.7174 C   0  0  0  0  0  0  0  0  0  0  0  0
  -88.9118   22.6001    4.4771 C   0  0  0  0  0  0  0  0  0  0  0  0
  -86.8625   23.3130    7.9583 C   0  0  0  0  0  0  0  0  0  0  0  0
  -87.6199   23.6588    9.0558 F   0  0  0  0  0  0  0  0  0  0  0  0
  -85.6170   23.9050    7.9081 F   0  0  0  0  0  0  0  0  0  0  0  0
  -86.7986   21.8503    7.6324 C   0  0  0  0  0  0  0  0  0  0  0  0
  -87.1669   20.0804    4.0497 F   0  0  0  0  0  0  0  0  0  0  0  0
  -88.1823   20.2733    4.9582 C   0  0  0  0  0  0  0  0  0  0  0  0
  -88.0098   19.4834    6.0834 F   0  0  0  0  0  0  0  0  0  0  0  0
  -89.3717   19.9338    4.3044 F   0  0  0  0  0  0  0  0  0  0  0  0
  -89.7177   24.8951    3.8962 C   0  0  0  0  0  0  0  0  0  0  0  0
  -90.9476   25.1650    4.2088 O   0  0  0  0  0  0  0  0  0  0  0  0
  -89.2137   25.6039    2.7344 C   0  0  0  0  0  0  0  0  0  0  0  0
  -88.0237   26.2598    2.8146 N   0  0  0  0  0  0  0  0  0  0  0  0
  -87.4595   26.9195    1.7885 C   0  0  0  0  0  0  0  0  0  0  0  0
  -88.0978   26.9552    0.5634 C   0  0  0  0  0  0  0  0  0  0  0  0
  -87.5061   27.6767   -0.6003 C   0  0  0  0  0  0  0  0  0  0  0  0
  -89.2738   26.3106    0.4706 N   0  0  0  0  0  0  0  0  0  0  0  0
  -89.8406   25.6439    1.5111 C   0  0  0  0  0  0  0  0  0  0  0  0
  -86.1772   27.5963    1.9598 C   0  0  0  0  0  0  0  0  0  0  0  0
  -85.0126   26.8523    2.0685 O   0  0  0  0  0  0  0  0  0  0  0  0
  -86.0461   28.8383    2.0174 O   0  0  0  0  0  0  0  0  0  0  0  0
  -84.9893   25.8389    1.8895 H   0  0  0  0  0  0  0  0  0  0  0  0
 11 12  1  0  0  0
 12  1  1  0  0  0
  1  2  2  0  0  0
  2  3  1  0  0  0
  3  4  2  0  0  0
  4  5  1  0  0  0
  5 15  1  0  0  0
 15 16  2  0  0  0
 15 17  1  0  0  0
 17 18  2  0  0  0
 18 19  1  0  0  0
 19 24  1  0  0  0
 24 25  1  0  0  0
 24 26  2  0  0  0
 19 20  2  0  0  0
 20 21  1  0  0  0
 20 22  1  0  0  0
 22 23  2  0  0  0
  5  6  2  0  0  0
  3  7  1  0  0  0
  7  8  1  0  0  0
  7  9  1  0  0  0
  7 10  1  0  0  0
 12 13  1  0  0  0
 12 14  1  0  0  0
  6  1  1  0  0  0
 10  2  1  0  0  0
 23 17  1  0  0  0
 25 27  1  0  0  0
M  END
> <minimizedAffinity>
-8.98020

> <CNNscore>
0.2628622949

> <CNNaffinity>
5.2230315208

> <CNN_VS>
1.3729380369

> <CNNaffinity_variance>
0.6447204947

$$$$
[H]OC(=O)c1nc(C(=O)c2c([H])c(C(F)(F)F)c3c(c2[H])C(F)(F)C3([H])[H])c([H])nc1C([H])([H])[H]


 27 29  0  0  0  0  0  0  0  0999 V2000
  -87.0842   30.7836   -0.3436 C   0  0  0  0  0  0  0  0  0  0  0  0
  -85.8209   31.1939    0.0259 C   0  0  0  0  0  0  0  0  0  0  0  0
  -85.0054   30.3341    0.6898 C   0  0  0  0  0  0  0  0  0  0  0  0
  -85.4343   29.0625    0.9931 C   0  0  0  0  0  0  0  0  0  0  0  0
  -86.7098   28.5933    0.6407 C   0  0  0  0  0  0  0  0  0  0  0  0
  -87.4925   29.4919   -0.0250 C   0  0  0  0  0  0  0  0  0  0  0  0
  -83.9318   31.3800    0.7391 C   0  0  0  0  0  0  0  0  0  0  0  0
  -82.8353   30.9273    0.0389 F   0  0  0  0  0  0  0  0  0  0  0  0
  -83.6564   31.8267    2.0154 F   0  0  0  0  0  0  0  0  0  0  0  0
  -84.8456   32.3162    0.0054 C   0  0  0  0  0  0  0  0  0  0  0  0
  -87.4635   31.9671   -2.3008 F   0  0  0  0  0  0  0  0  0  0  0  0
  -88.0087   31.6879   -1.0685 C   0  0  0  0  0  0  0  0  0  0  0  0
  -89.2728   31.1338   -1.1895 F   0  0  0  0  0  0  0  0  0  0  0  0
  -88.0752   32.9028   -0.3778 F   0  0  0  0  0  0  0  0  0  0  0  0
  -87.0842   27.2373    0.9769 C   0  0  0  0  0  0  0  0  0  0  0  0
  -86.5540   26.7072    2.0357 O   0  0  0  0  0  0  0  0  0  0  0  0
  -88.0008   26.3735    0.2558 C   0  0  0  0  0  0  0  0  0  0  0  0
  -88.8032   25.5208    0.9498 N   0  0  0  0  0  0  0  0  0  0  0  0
  -89.7034   24.7034    0.3771 C   0  0  0  0  0  0  0  0  0  0  0  0
  -89.8503   24.7017   -0.9969 C   0  0  0  0  0  0  0  0  0  0  0  0
  -90.8369   23.8096   -1.6718 C   0  0  0  0  0  0  0  0  0  0  0  0
  -89.0640   25.5399   -1.6942 N   0  0  0  0  0  0  0  0  0  0  0  0
  -88.1551   26.3656   -1.1107 C   0  0  0  0  0  0  0  0  0  0  0  0
  -90.5270   23.8197    1.1972 C   0  0  0  0  0  0  0  0  0  0  0  0
  -90.0611   22.5591    1.5365 O   0  0  0  0  0  0  0  0  0  0  0  0
  -91.6590   24.1251    1.6314 O   0  0  0  0  0  0  0  0  0  0  0  0
  -89.0913   22.2647    1.3561 H   0  0  0  0  0  0  0  0  0  0  0  0
 11 12  1  0  0  0
 12  1  1  0  0  0
  1  2  2  0  0  0
  2  3  1  0  0  0
  3  4  2  0  0  0
  4  5  1  0  0  0
  5 15  1  0  0  0
 15 16  2  0  0  0
 15 17  1  0  0  0
 17 18  2  0  0  0
 18 19  1  0  0  0
 19 24  1  0  0  0
 24 25  1  0  0  0
 24 26  2  0  0  0
 19 20  2  0  0  0
 20 21  1  0  0  0
 20 22  1  0  0  0
 22 23  2  0  0  0
  5  6  2  0  0  0
  3  7  1  0  0  0
  7  8  1  0  0  0
  7  9  1  0  0  0
  7 10  1  0  0  0
 12 13  1  0  0  0
 12 14  1  0  0  0
  6  1  1  0  0  0
 10  2  1  0  0  0
 23 17  1  0  0  0
 25 27  1  0  0  0
M  END
> <minimizedAffinity>
-8.41162

> <CNNscore>
0.2421761155

> <CNNaffinity>
5.9642128944

> <CNN_VS>
1.4443899393

> <CNNaffinity_variance>
0.3694918752

$$$$
[H]OC(=O)c1nc(C(=O)c2c([H])c(C(F)(F)F)c3c(c2[H])C(F)(F)C3([H])[H])c([H])nc1C([H])([H])[H]


 27 29  0  0  0  0  0  0  0  0999 V2000
  -85.0313   29.7331    1.3509 C   0  0  0  0  0  0  0  0  0  0  0  0
  -84.5898   30.9152    0.7955 C   0  0  0  0  0  0  0  0  0  0  0  0
  -85.3806   31.5751   -0.0902 C   0  0  0  0  0  0  0  0  0  0  0  0
  -86.6136   31.0697   -0.4328 C   0  0  0  0  0  0  0  0  0  0  0  0
  -87.1119   29.8711    0.1023 C   0  0  0  0  0  0  0  0  0  0  0  0
  -86.2828   29.2448    0.9875 C   0  0  0  0  0  0  0  0  0  0  0  0
  -84.3385   32.6438   -0.2345 C   0  0  0  0  0  0  0  0  0  0  0  0
  -84.8633   33.8406    0.2016 F   0  0  0  0  0  0  0  0  0  0  0  0
  -83.7657   32.6887   -1.4891 F   0  0  0  0  0  0  0  0  0  0  0  0
  -83.4785   31.9020    0.7453 C   0  0  0  0  0  0  0  0  0  0  0  0
  -84.3600   27.6344    2.0716 F   0  0  0  0  0  0  0  0  0  0  0  0
  -84.2021   28.9784    2.3208 C   0  0  0  0  0  0  0  0  0  0  0  0
  -82.8697   29.3519    2.2509 F   0  0  0  0  0  0  0  0  0  0  0  0
  -84.7035   29.2067    3.6069 F   0  0  0  0  0  0  0  0  0  0  0  0
  -88.4257   29.4114   -0.2909 C   0  0  0  0  0  0  0  0  0  0  0  0
  -89.3906   30.2785   -0.3087 O   0  0  0  0  0  0  0  0  0  0  0  0
  -88.8079   28.0650   -0.6747 C   0  0  0  0  0  0  0  0  0  0  0  0
  -89.8326   27.8845   -1.5522 N   0  0  0  0  0  0  0  0  0  0  0  0
  -90.2424   26.6819   -1.9908 C   0  0  0  0  0  0  0  0  0  0  0  0
  -89.6084   25.5379   -1.5451 C   0  0  0  0  0  0  0  0  0  0  0  0
  -90.0326   24.1844   -2.0065 C   0  0  0  0  0  0  0  0  0  0  0  0
  -88.5940   25.7024   -0.6784 N   0  0  0  0  0  0  0  0  0  0  0  0
  -88.1824   26.9209   -0.2378 C   0  0  0  0  0  0  0  0  0  0  0  0
  -91.3507   26.5774   -2.9355 C   0  0  0  0  0  0  0  0  0  0  0  0
  -92.6383   26.3636   -2.4687 O   0  0  0  0  0  0  0  0  0  0  0  0
  -91.2215   26.6699   -4.1756 O   0  0  0  0  0  0  0  0  0  0  0  0
  -92.8762   26.4174   -1.4687 H   0  0  0  0  0  0  0  0  0  0  0  0
 11 12  1  0  0  0
 12  1  1  0  0  0
  1  2  2  0  0  0
  2  3  1  0  0  0
  3  4  2  0  0  0
  4  5  1  0  0  0
  5 15  1  0  0  0
 15 16  2  0  0  0
 15 17  1  0  0  0
 17 18  2  0  0  0
 18 19  1  0  0  0
 19 24  1  0  0  0
 24 25  1  0  0  0
 24 26  2  0  0  0
 19 20  2  0  0  0
 20 21  1  0  0  0
 20 22  1  0  0  0
 22 23  2  0  0  0
  5  6  2  0  0  0
  3  7  1  0  0  0
  7  8  1  0  0  0
  7  9  1  0  0  0
  7 10  1  0  0  0
 12 13  1  0  0  0
 12 14  1  0  0  0
  6  1  1  0  0  0
 10  2  1  0  0  0
 23 17  1  0  0  0
 25 27  1  0  0  0
M  END
> <minimizedAffinity>
-8.74096

> <CNNscore>
0.2309568375

> <CNNaffinity>
5.5388669968

> <CNN_VS>
1.2792391777

> <CNNaffinity_variance>
0.4398346841

$$$$
[H]c1c([H])c([H])c(-c2c([H])c(-c3nn([H])c4c([H])c([H])c(C(=O)N([H])C([H])([H])c5c([H])c([H])c(OC([H])([H])[H])c([H])c5[H])c([H])c34)c([H])c(N([H])S(=O)(=O)C([H])([H])[H])c2[H])c([H])c1[H]


 41 45  0  0  0  0  0  0  0  0999 V2000
  -84.8547   29.3372    0.9651 C   0  0  0  0  0  0  0  0  0  0  0  0
  -83.5611   29.5138    1.4224 C   0  0  0  0  0  0  0  0  0  0  0  0
  -82.8547   30.6741    1.2249 C   0  0  0  0  0  0  0  0  0  0  0  0
  -83.4267   31.7293    0.5450 C   0  0  0  0  0  0  0  0  0  0  0  0
  -83.0545   32.9542    0.1862 N   0  0  0  0  0  0  0  0  0  0  0  0
  -84.0301   33.5609   -0.4681 N   0  0  0  0  0  0  0  0  0  0  0  0
  -85.0982   32.7356   -0.5616 C   0  0  0  0  0  0  0  0  0  0  0  0
  -84.7348   31.5721    0.0735 C   0  0  0  0  0  0  0  0  0  0  0  0
  -85.4281   30.3974    0.2828 C   0  0  0  0  0  0  0  0  0  0  0  0
  -82.1110   33.3566    0.4060 H   0  0  0  0  0  0  0  0  0  0  0  0
  -86.3883   32.9974   -1.1878 C   0  0  0  0  0  0  0  0  0  0  0  0
  -87.3721   32.0190   -0.9849 C   0  0  0  0  0  0  0  0  0  0  0  0
  -88.6353   32.1515   -1.5205 C   0  0  0  0  0  0  0  0  0  0  0  0
  -88.8899   33.2881   -2.2654 C   0  0  0  0  0  0  0  0  0  0  0  0
  -87.9585   34.2751   -2.4922 C   0  0  0  0  0  0  0  0  0  0  0  0
  -86.6855   34.0948   -1.9250 C   0  0  0  0  0  0  0  0  0  0  0  0
  -89.6374   31.1326   -1.2898 C   0  0  0  0  0  0  0  0  0  0  0  0
  -90.6835   30.8336   -2.1125 C   0  0  0  0  0  0  0  0  0  0  0  0
  -91.5826   29.8293   -1.7840 C   0  0  0  0  0  0  0  0  0  0  0  0
  -91.4646   29.0886   -0.6177 C   0  0  0  0  0  0  0  0  0  0  0  0
  -90.4122   29.3813    0.2220 C   0  0  0  0  0  0  0  0  0  0  0  0
  -89.5271   30.3802   -0.1160 C   0  0  0  0  0  0  0  0  0  0  0  0
  -88.2276   35.4505   -3.2499 N   0  0  0  0  0  0  0  0  0  0  0  0
  -88.1976   36.3832   -2.7621 H   0  0  0  0  0  0  0  0  0  0  0  0
  -88.5993   35.4204   -4.9215 S   0  0  0  0  0  0  0  0  0  0  0  0
  -89.5107   34.0263   -5.4567 C   0  0  0  0  0  0  0  0  0  0  0  0
  -89.2734   36.7182   -5.3460 O   0  0  0  0  0  0  0  0  0  0  0  0
  -87.2894   35.4107   -5.7092 O   0  0  0  0  0  0  0  0  0  0  0  0
  -86.8223   27.8213    0.5232 N   0  0  0  0  0  0  0  0  0  0  0  0
  -85.5883   28.1055    1.1969 C   0  0  0  0  0  0  0  0  0  0  0  0
  -85.1557   27.2501    1.9977 O   0  0  0  0  0  0  0  0  0  0  0  0
  -87.1859   28.5321   -0.1524 H   0  0  0  0  0  0  0  0  0  0  0  0
  -87.5602   26.6152    0.7397 C   0  0  0  0  0  0  0  0  0  0  0  0
  -89.6739   26.6997    4.5001 C   0  0  0  0  0  0  0  0  0  0  0  0
  -89.3928   27.8552    3.7971 C   0  0  0  0  0  0  0  0  0  0  0  0
  -88.7117   27.8198    2.5781 C   0  0  0  0  0  0  0  0  0  0  0  0
  -88.2963   26.6184    2.0361 C   0  0  0  0  0  0  0  0  0  0  0  0
  -88.5913   25.4878    2.7584 C   0  0  0  0  0  0  0  0  0  0  0  0
  -89.2647   25.5033    3.9676 C   0  0  0  0  0  0  0  0  0  0  0  0
  -89.7395   27.0307    6.9560 C   0  0  0  0  0  0  0  0  0  0  0  0
  -90.3551   26.7587    5.7156 O   0  0  0  0  0  0  0  0  0  0  0  0
 40 41  1  0  0  0
 41 34  1  0  0  0
 34 35  2  0  0  0
 35 36  1  0  0  0
 36 37  2  0  0  0
 37 33  1  0  0  0
 33 29  1  0  0  0
 29 30  1  0  0  0
 30 31  2  0  0  0
 30  1  1  0  0  0
  1  2  2  0  0  0
  2  3  1  0  0  0
  3  4  2  0  0  0
  4  5  1  0  0  0
  5  6  1  0  0  0
  6  7  2  0  0  0
  7 11  1  0  0  0
 11 12  2  0  0  0
 12 13  1  0  0  0
 13 14  2  0  0  0
 14 15  1  0  0  0
 15 23  1  0  0  0
 23 25  1  0  0  0
 25 26  1  0  0  0
 25 27  2  0  0  0
 25 28  2  0  0  0
 15 16  2  0  0  0
 13 17  1  0  0  0
 17 18  2  0  0  0
 18 19  1  0  0  0
 19 20  2  0  0  0
 20 21  1  0  0  0
 21 22  2  0  0  0
  7  8  1  0  0  0
  8  9  2  0  0  0
 37 38  1  0  0  0
 38 39  2  0  0  0
 39 34  1  0  0  0
  9  1  1  0  0  0
  8  4  1  0  0  0
 16 11  1  0  0  0
 22 17  1  0  0  0
 29 32  1  0  0  0
  5 10  1  0  0  0
 23 24  1  0  0  0
M  END
> <minimizedAffinity>
-9.93929

> <CNNscore>
0.8844917417

> <CNNaffinity>
7.9945702553

> <CNN_VS>
7.0711312294

> <CNNaffinity_variance>
0.1733748913

$$$$
[H]c1c([H])c([H])c(-c2c([H])c(-c3nn([H])c4c([H])c([H])c(C(=O)N([H])C([H])([H])c5c([H])c([H])c(OC([H])([H])[H])c([H])c5[H])c([H])c34)c([H])c(N([H])S(=O)(=O)C([H])([H])[H])c2[H])c([H])c1[H]


 41 45  0  0  0  0  0  0  0  0999 V2000
  -85.0108   29.2174    1.0490 C   0  0  0  0  0  0  0  0  0  0  0  0
  -83.6995   29.3672    1.4635 C   0  0  0  0  0  0  0  0  0  0  0  0
  -82.9770   30.5137    1.2449 C   0  0  0  0  0  0  0  0  0  0  0  0
  -83.5501   31.5818    0.5863 C   0  0  0  0  0  0  0  0  0  0  0  0
  -83.1656   32.8000    0.2177 N   0  0  0  0  0  0  0  0  0  0  0  0
  -84.1501   33.4276   -0.4028 N   0  0  0  0  0  0  0  0  0  0  0  0
  -85.2370   32.6239   -0.4624 C   0  0  0  0  0  0  0  0  0  0  0  0
  -84.8760   31.4517    0.1581 C   0  0  0  0  0  0  0  0  0  0  0  0
  -85.5852   30.2905    0.3880 C   0  0  0  0  0  0  0  0  0  0  0  0
  -82.2076   33.1830    0.4068 H   0  0  0  0  0  0  0  0  0  0  0  0
  -86.5416   32.9128   -1.0450 C   0  0  0  0  0  0  0  0  0  0  0  0
  -86.5775   33.9764   -1.9581 C   0  0  0  0  0  0  0  0  0  0  0  0
  -87.7498   34.3459   -2.5817 C   0  0  0  0  0  0  0  0  0  0  0  0
  -88.8870   33.6243   -2.2685 C   0  0  0  0  0  0  0  0  0  0  0  0
  -88.9021   32.5737   -1.3802 C   0  0  0  0  0  0  0  0  0  0  0  0
  -87.6822   32.2347   -0.7707 C   0  0  0  0  0  0  0  0  0  0  0  0
  -87.7606   35.4416   -3.5278 C   0  0  0  0  0  0  0  0  0  0  0  0
  -88.1019   36.7340   -3.2565 C   0  0  0  0  0  0  0  0  0  0  0  0
  -88.0718   37.7015   -4.2505 C   0  0  0  0  0  0  0  0  0  0  0  0
  -87.6981   37.4069   -5.5530 C   0  0  0  0  0  0  0  0  0  0  0  0
  -87.3514   36.1047   -5.8398 C   0  0  0  0  0  0  0  0  0  0  0  0
  -87.3854   35.1545   -4.8441 C   0  0  0  0  0  0  0  0  0  0  0  0
  -90.0727   31.8248   -1.0688 N   0  0  0  0  0  0  0  0  0  0  0  0
  -90.5602   32.0078   -0.1536 H   0  0  0  0  0  0  0  0  0  0  0  0
  -90.7278   30.6365   -2.1139 S   0  0  0  0  0  0  0  0  0  0  0  0
  -91.7096   29.4174   -1.3328 C   0  0  0  0  0  0  0  0  0  0  0  0
  -91.4729   31.2893   -3.2705 O   0  0  0  0  0  0  0  0  0  0  0  0
  -89.5737   29.8964   -2.7900 O   0  0  0  0  0  0  0  0  0  0  0  0
  -86.9920   27.7143    0.6246 N   0  0  0  0  0  0  0  0  0  0  0  0
  -85.7606   28.0000    1.3026 C   0  0  0  0  0  0  0  0  0  0  0  0
  -85.3450   27.1585    2.1268 O   0  0  0  0  0  0  0  0  0  0  0  0
  -87.3414   28.4133   -0.0705 H   0  0  0  0  0  0  0  0  0  0  0  0
  -87.7457   26.5222    0.8624 C   0  0  0  0  0  0  0  0  0  0  0  0
  -89.6720   26.6029    4.7222 C   0  0  0  0  0  0  0  0  0  0  0  0
  -89.4658   27.7544    3.9875 C   0  0  0  0  0  0  0  0  0  0  0  0
  -88.8452   27.7201    2.7367 C   0  0  0  0  0  0  0  0  0  0  0  0
  -88.4164   26.5238    2.1938 C   0  0  0  0  0  0  0  0  0  0  0  0
  -88.6363   25.3970    2.9481 C   0  0  0  0  0  0  0  0  0  0  0  0
  -89.2491   25.4115    4.1892 C   0  0  0  0  0  0  0  0  0  0  0  0
  -89.7559   27.3249    7.0922 C   0  0  0  0  0  0  0  0  0  0  0  0
  -90.2937   26.6608    5.9692 O   0  0  0  0  0  0  0  0  0  0  0  0
 40 41  1  0  0  0
 41 34  1  0  0  0
 34 35  2  0  0  0
 35 36  1  0  0  0
 36 37  2  0  0  0
 37 33  1  0  0  0
 33 29  1  0  0  0
 29 30  1  0  0  0
 30 31  2  0  0  0
 30  1  1  0  0  0
  1  2  2  0  0  0
  2  3  1  0  0  0
  3  4  2  0  0  0
  4  5  1  0  0  0
  5  6  1  0  0  0
  6  7  2  0  0  0
  7 11  1  0  0  0
 11 12  2  0  0  0
 12 13  1  0  0  0
 13 14  2  0  0  0
 14 15  1  0  0  0
 15 23  1  0  0  0
 23 25  1  0  0  0
 25 26  1  0  0  0
 25 27  2  0  0  0
 25 28  2  0  0  0
 15 16  2  0  0  0
 13 17  1  0  0  0
 17 18  2  0  0  0
 18 19  1  0  0  0
 19 20  2  0  0  0
 20 21  1  0  0  0
 21 22  2  0  0  0
  7  8  1  0  0  0
  8  9  2  0  0  0
 37 38  1  0  0  0
 38 39  2  0  0  0
 39 34  1  0  0  0
  9  1  1  0  0  0
  8  4  1  0  0  0
 16 11  1  0  0  0
 22 17  1  0  0  0
 29 32  1  0  0  0
  5 10  1  0  0  0
 23 24  1  0  0  0
M  END
> <minimizedAffinity>
-10.05719

> <CNNscore>
0.8476519585

> <CNNaffinity>
7.7847380638

> <CNN_VS>
6.5987486839

> <CNNaffinity_variance>
0.1842794716

$$$$
[H]c1c([H])c([H])c(-c2c([H])c(-c3nn([H])c4c([H])c([H])c(C(=O)N([H])C([H])([H])c5c([H])c([H])c(OC([H])([H])[H])c([H])c5[H])c([H])c34)c([H])c(N([H])S(=O)(=O)C([H])([H])[H])c2[H])c([H])c1[H]


 41 45  0  0  0  0  0  0  0  0999 V2000
  -84.3302   29.3530    1.3880 C   0  0  0  0  0  0  0  0  0  0  0  0
  -82.9944   29.5975    1.6521 C   0  0  0  0  0  0  0  0  0  0  0  0
  -82.3517   30.7382    1.2398 C   0  0  0  0  0  0  0  0  0  0  0  0
  -83.0350   31.7029    0.5288 C   0  0  0  0  0  0  0  0  0  0  0  0
  -82.7459   32.8852   -0.0062 N   0  0  0  0  0  0  0  0  0  0  0  0
  -83.8135   33.4015   -0.5909 N   0  0  0  0  0  0  0  0  0  0  0  0
  -84.8612   32.5562   -0.4551 C   0  0  0  0  0  0  0  0  0  0  0  0
  -84.3874   31.4759    0.2505 C   0  0  0  0  0  0  0  0  0  0  0  0
  -85.0152   30.3224    0.6743 C   0  0  0  0  0  0  0  0  0  0  0  0
  -81.7939   33.3227    0.0445 H   0  0  0  0  0  0  0  0  0  0  0  0
  -86.2272   32.7285   -0.9338 C   0  0  0  0  0  0  0  0  0  0  0  0
  -86.4002   33.6815   -1.9478 C   0  0  0  0  0  0  0  0  0  0  0  0
  -87.6425   33.9344   -2.4888 C   0  0  0  0  0  0  0  0  0  0  0  0
  -88.7089   33.2096   -1.9893 C   0  0  0  0  0  0  0  0  0  0  0  0
  -88.5895   32.2648   -0.9962 C   0  0  0  0  0  0  0  0  0  0  0  0
  -87.3028   32.0425   -0.4771 C   0  0  0  0  0  0  0  0  0  0  0  0
  -87.7952   34.9165   -3.5413 C   0  0  0  0  0  0  0  0  0  0  0  0
  -87.7694   34.6679   -4.8822 C   0  0  0  0  0  0  0  0  0  0  0  0
  -87.9298   35.6962   -5.7997 C   0  0  0  0  0  0  0  0  0  0  0  0
  -88.1217   37.0115   -5.4047 C   0  0  0  0  0  0  0  0  0  0  0  0
  -88.1493   37.2757   -4.0528 C   0  0  0  0  0  0  0  0  0  0  0  0
  -87.9892   36.2460   -3.1531 C   0  0  0  0  0  0  0  0  0  0  0  0
  -89.6879   31.5113   -0.4923 N   0  0  0  0  0  0  0  0  0  0  0  0
  -90.2849   31.9343    0.2650 H   0  0  0  0  0  0  0  0  0  0  0  0
  -90.0860   29.9452   -1.0599 S   0  0  0  0  0  0  0  0  0  0  0  0
  -89.0824   29.3476   -2.3623 C   0  0  0  0  0  0  0  0  0  0  0  0
  -90.1430   28.9533    0.0942 O   0  0  0  0  0  0  0  0  0  0  0  0
  -91.5182   29.9726   -1.5935 O   0  0  0  0  0  0  0  0  0  0  0  0
  -86.3932   27.9206    1.6265 N   0  0  0  0  0  0  0  0  0  0  0  0
  -84.9934   28.1448    1.8454 C   0  0  0  0  0  0  0  0  0  0  0  0
  -84.3522   27.2574    2.4467 O   0  0  0  0  0  0  0  0  0  0  0  0
  -86.9333   28.6582    1.1187 H   0  0  0  0  0  0  0  0  0  0  0  0
  -87.0645   26.7384    2.0712 C   0  0  0  0  0  0  0  0  0  0  0  0
  -89.9387   25.3523   -0.8328 C   0  0  0  0  0  0  0  0  0  0  0  0
  -88.7113   25.8619   -1.2096 C   0  0  0  0  0  0  0  0  0  0  0  0
  -87.7840   26.3050   -0.2636 C   0  0  0  0  0  0  0  0  0  0  0  0
  -88.0701   26.2456    1.0871 C   0  0  0  0  0  0  0  0  0  0  0  0
  -89.2979   25.7335    1.4296 C   0  0  0  0  0  0  0  0  0  0  0  0
  -90.2293   25.2901    0.5067 C   0  0  0  0  0  0  0  0  0  0  0  0
  -91.0878   23.5592   -2.1015 C   0  0  0  0  0  0  0  0  0  0  0  0
  -90.8494   24.9159   -1.7946 O   0  0  0  0  0  0  0  0  0  0  0  0
 40 41  1  0  0  0
 41 34  1  0  0  0
 34 35  2  0  0  0
 35 36  1  0  0  0
 36 37  2  0  0  0
 37 33  1  0  0  0
 33 29  1  0  0  0
 29 30  1  0  0  0
 30 31  2  0  0  0
 30  1  1  0  0  0
  1  2  2  0  0  0
  2  3  1  0  0  0
  3  4  2  0  0  0
  4  5  1  0  0  0
  5  6  1  0  0  0
  6  7  2  0  0  0
  7 11  1  0  0  0
 11 12  2  0  0  0
 12 13  1  0  0  0
 13 14  2  0  0  0
 14 15  1  0  0  0
 15 23  1  0  0  0
 23 25  1  0  0  0
 25 26  1  0  0  0
 25 27  2  0  0  0
 25 28  2  0  0  0
 15 16  2  0  0  0
 13 17  1  0  0  0
 17 18  2  0  0  0
 18 19  1  0  0  0
 19 20  2  0  0  0
 20 21  1  0  0  0
 21 22  2  0  0  0
  7  8  1  0  0  0
  8  9  2  0  0  0
 37 38  1  0  0  0
 38 39  2  0  0  0
 39 34  1  0  0  0
  9  1  1  0  0  0
  8  4  1  0  0  0
 16 11  1  0  0  0
 22 17  1  0  0  0
 29 32  1  0  0  0
  5 10  1  0  0  0
 23 24  1  0  0  0
M  END
> <minimizedAffinity>
-10.92315

> <CNNscore>
0.7825392485

> <CNNaffinity>
7.4840493202

> <CNN_VS>
5.8565621376

> <CNNaffinity_variance>
0.2370020598

$$$$
[H]c1c([H])c([H])c(-c2c([H])c(-c3nn([H])c4c([H])c([H])c(C(=O)N([H])C([H])([H])c5c([H])c([H])c(OC([H])([H])[H])c([H])c5[H])c([H])c34)c([H])c(N([H])S(=O)(=O)C([H])([H])[H])c2[H])c([H])c1[H]


 41 45  0  0  0  0  0  0  0  0999 V2000
  -83.8121   30.9910    0.6373 C   0  0  0  0  0  0  0  0  0  0  0  0
  -82.5695   30.7139    1.1785 C   0  0  0  0  0  0  0  0  0  0  0  0
  -82.3067   29.5695    1.8896 C   0  0  0  0  0  0  0  0  0  0  0  0
  -83.3000   28.6344    2.0940 C   0  0  0  0  0  0  0  0  0  0  0  0
  -83.3993   27.4582    2.7060 N   0  0  0  0  0  0  0  0  0  0  0  0
  -84.6246   26.9763    2.5857 N   0  0  0  0  0  0  0  0  0  0  0  0
  -85.3860   27.8396    1.8746 C   0  0  0  0  0  0  0  0  0  0  0  0
  -84.5650   28.8946    1.5552 C   0  0  0  0  0  0  0  0  0  0  0  0
  -84.8086   30.0512    0.8430 C   0  0  0  0  0  0  0  0  0  0  0  0
  -82.5991   27.0005    3.2066 H   0  0  0  0  0  0  0  0  0  0  0  0
  -86.7872   27.7053    1.4957 C   0  0  0  0  0  0  0  0  0  0  0  0
  -87.1594   28.3473    0.3059 C   0  0  0  0  0  0  0  0  0  0  0  0
  -88.4541   28.2914   -0.1635 C   0  0  0  0  0  0  0  0  0  0  0  0
  -89.3687   27.5768    0.5881 C   0  0  0  0  0  0  0  0  0  0  0  0
  -89.0519   26.9305    1.7607 C   0  0  0  0  0  0  0  0  0  0  0  0
  -87.7191   27.0162    2.1976 C   0  0  0  0  0  0  0  0  0  0  0  0
  -88.8128   28.9545   -1.3993 C   0  0  0  0  0  0  0  0  0  0  0  0
  -90.0795   29.1740   -1.8552 C   0  0  0  0  0  0  0  0  0  0  0  0
  -90.2992   29.8257   -3.0602 C   0  0  0  0  0  0  0  0  0  0  0  0
  -89.2553   30.2806   -3.8516 C   0  0  0  0  0  0  0  0  0  0  0  0
  -87.9710   30.0646   -3.4023 C   0  0  0  0  0  0  0  0  0  0  0  0
  -87.7670   29.4169   -2.2047 C   0  0  0  0  0  0  0  0  0  0  0  0
  -89.9935   26.1852    2.5263 N   0  0  0  0  0  0  0  0  0  0  0  0
  -90.5960   25.4761    2.0335 H   0  0  0  0  0  0  0  0  0  0  0  0
  -90.1944   26.3875    4.2151 S   0  0  0  0  0  0  0  0  0  0  0  0
  -89.9527   28.0171    4.8039 C   0  0  0  0  0  0  0  0  0  0  0  0
  -91.5368   25.8292    4.6678 O   0  0  0  0  0  0  0  0  0  0  0  0
  -89.1692   25.5103    4.9336 O   0  0  0  0  0  0  0  0  0  0  0  0
  -85.3913   32.5995   -0.4956 N   0  0  0  0  0  0  0  0  0  0  0  0
  -84.0643   32.2023   -0.1229 C   0  0  0  0  0  0  0  0  0  0  0  0
  -83.1193   32.9398   -0.4739 O   0  0  0  0  0  0  0  0  0  0  0  0
  -86.1864   31.9881   -0.1993 H   0  0  0  0  0  0  0  0  0  0  0  0
  -85.6596   33.7874   -1.2458 C   0  0  0  0  0  0  0  0  0  0  0  0
  -89.3938   33.6566   -3.4032 C   0  0  0  0  0  0  0  0  0  0  0  0
  -88.2297   34.1129   -3.9903 C   0  0  0  0  0  0  0  0  0  0  0  0
  -87.0234   34.1485   -3.2870 C   0  0  0  0  0  0  0  0  0  0  0  0
  -86.9594   33.7248   -1.9732 C   0  0  0  0  0  0  0  0  0  0  0  0
  -88.1331   33.2763   -1.4181 C   0  0  0  0  0  0  0  0  0  0  0  0
  -89.3375   33.2340   -2.0990 C   0  0  0  0  0  0  0  0  0  0  0  0
  -90.6642   33.4450   -5.5213 C   0  0  0  0  0  0  0  0  0  0  0  0
  -90.5871   33.6301   -4.1244 O   0  0  0  0  0  0  0  0  0  0  0  0
 40 41  1  0  0  0
 41 34  1  0  0  0
 34 35  2  0  0  0
 35 36  1  0  0  0
 36 37  2  0  0  0
 37 33  1  0  0  0
 33 29  1  0  0  0
 29 30  1  0  0  0
 30 31  2  0  0  0
 30  1  1  0  0  0
  1  2  2  0  0  0
  2  3  1  0  0  0
  3  4  2  0  0  0
  4  5  1  0  0  0
  5  6  1  0  0  0
  6  7  2  0  0  0
  7 11  1  0  0  0
 11 12  2  0  0  0
 12 13  1  0  0  0
 13 14  2  0  0  0
 14 15  1  0  0  0
 15 23  1  0  0  0
 23 25  1  0  0  0
 25 26  1  0  0  0
 25 27  2  0  0  0
 25 28  2  0  0  0
 15 16  2  0  0  0
 13 17  1  0  0  0
 17 18  2  0  0  0
 18 19  1  0  0  0
 19 20  2  0  0  0
 20 21  1  0  0  0
 21 22  2  0  0  0
  7  8  1  0  0  0
  8  9  2  0  0  0
 37 38  1  0  0  0
 38 39  2  0  0  0
 39 34  1  0  0  0
  9  1  1  0  0  0
  8  4  1  0  0  0
 16 11  1  0  0  0
 22 17  1  0  0  0
 29 32  1  0  0  0
  5 10  1  0  0  0
 23 24  1  0  0  0
M  END
> <minimizedAffinity>
-10.82692

> <CNNscore>
0.7523383498

> <CNNaffinity>
7.7436323166

> <CNN_VS>
5.8258314133

> <CNNaffinity_variance>
0.1498717964

$$$$
[H]c1c([H])c([H])c(-c2c([H])c(-c3nn([H])c4c([H])c([H])c(C(=O)N([H])C([H])([H])c5c([H])c([H])c(OC([H])([H])[H])c([H])c5[H])c([H])c34)c([H])c(N([H])S(=O)(=O)C([H])([H])[H])c2[H])c([H])c1[H]


 41 45  0  0  0  0  0  0  0  0999 V2000
  -84.1126   31.1196    0.6304 C   0  0  0  0  0  0  0  0  0  0  0  0
  -82.8267   30.9143    1.0973 C   0  0  0  0  0  0  0  0  0  0  0  0
  -82.4517   29.7765    1.7673 C   0  0  0  0  0  0  0  0  0  0  0  0
  -83.3698   28.7745    2.0041 C   0  0  0  0  0  0  0  0  0  0  0  0
  -83.3590   27.5831    2.5941 N   0  0  0  0  0  0  0  0  0  0  0  0
  -84.5555   27.0242    2.5295 N   0  0  0  0  0  0  0  0  0  0  0  0
  -85.4092   27.8490    1.8801 C   0  0  0  0  0  0  0  0  0  0  0  0
  -84.6768   28.9614    1.5405 C   0  0  0  0  0  0  0  0  0  0  0  0
  -85.0335   30.1128    0.8686 C   0  0  0  0  0  0  0  0  0  0  0  0
  -82.5045   27.1695    3.0403 H   0  0  0  0  0  0  0  0  0  0  0  0
  -86.8177   27.6303    1.5746 C   0  0  0  0  0  0  0  0  0  0  0  0
  -87.4231   28.6044    0.7678 C   0  0  0  0  0  0  0  0  0  0  0  0
  -88.7491   28.5099    0.4036 C   0  0  0  0  0  0  0  0  0  0  0  0
  -89.4555   27.4156    0.8676 C   0  0  0  0  0  0  0  0  0  0  0  0
  -88.9063   26.4345    1.6607 C   0  0  0  0  0  0  0  0  0  0  0  0
  -87.5511   26.5751    2.0045 C   0  0  0  0  0  0  0  0  0  0  0  0
  -89.3500   29.5231   -0.4378 C   0  0  0  0  0  0  0  0  0  0  0  0
  -89.2812   30.8717   -0.2453 C   0  0  0  0  0  0  0  0  0  0  0  0
  -89.8993   31.7485   -1.1251 C   0  0  0  0  0  0  0  0  0  0  0  0
  -90.6091   31.3035   -2.2302 C   0  0  0  0  0  0  0  0  0  0  0  0
  -90.6862   29.9434   -2.4355 C   0  0  0  0  0  0  0  0  0  0  0  0
  -90.0681   29.0844   -1.5548 C   0  0  0  0  0  0  0  0  0  0  0  0
  -89.6335   25.3023    2.1270 N   0  0  0  0  0  0  0  0  0  0  0  0
  -89.8203   24.5117    1.4571 H   0  0  0  0  0  0  0  0  0  0  0  0
  -90.2212   25.1641    3.7297 S   0  0  0  0  0  0  0  0  0  0  0  0
  -90.6541   26.6755    4.4971 C   0  0  0  0  0  0  0  0  0  0  0  0
  -91.3651   24.1613    3.7986 O   0  0  0  0  0  0  0  0  0  0  0  0
  -89.1281   24.5362    4.5943 O   0  0  0  0  0  0  0  0  0  0  0  0
  -85.8542   32.6566   -0.3539 N   0  0  0  0  0  0  0  0  0  0  0  0
  -84.4841   32.3258   -0.0877 C   0  0  0  0  0  0  0  0  0  0  0  0
  -83.6079   33.1174   -0.4949 O   0  0  0  0  0  0  0  0  0  0  0  0
  -86.5918   31.9996   -0.0103 H   0  0  0  0  0  0  0  0  0  0  0  0
  -86.2397   33.8385   -1.0613 C   0  0  0  0  0  0  0  0  0  0  0  0
  -88.6356   33.0295   -4.5572 C   0  0  0  0  0  0  0  0  0  0  0  0
  -88.7782   34.1961   -3.8312 C   0  0  0  0  0  0  0  0  0  0  0  0
  -87.9960   34.4531   -2.7028 C   0  0  0  0  0  0  0  0  0  0  0  0
  -87.0497   33.5405   -2.2770 C   0  0  0  0  0  0  0  0  0  0  0  0
  -86.9315   32.3912   -3.0200 C   0  0  0  0  0  0  0  0  0  0  0  0
  -87.6976   32.1191   -4.1403 C   0  0  0  0  0  0  0  0  0  0  0  0
  -90.5108   33.6094   -6.0713 C   0  0  0  0  0  0  0  0  0  0  0  0
  -89.4275   32.7937   -5.6806 O   0  0  0  0  0  0  0  0  0  0  0  0
 40 41  1  0  0  0
 41 34  1  0  0  0
 34 35  2  0  0  0
 35 36  1  0  0  0
 36 37  2  0  0  0
 37 33  1  0  0  0
 33 29  1  0  0  0
 29 30  1  0  0  0
 30 31  2  0  0  0
 30  1  1  0  0  0
  1  2  2  0  0  0
  2  3  1  0  0  0
  3  4  2  0  0  0
  4  5  1  0  0  0
  5  6  1  0  0  0
  6  7  2  0  0  0
  7 11  1  0  0  0
 11 12  2  0  0  0
 12 13  1  0  0  0
 13 14  2  0  0  0
 14 15  1  0  0  0
 15 23  1  0  0  0
 23 25  1  0  0  0
 25 26  1  0  0  0
 25 27  2  0  0  0
 25 28  2  0  0  0
 15 16  2  0  0  0
 13 17  1  0  0  0
 17 18  2  0  0  0
 18 19  1  0  0  0
 19 20  2  0  0  0
 20 21  1  0  0  0
 21 22  2  0  0  0
  7  8  1  0  0  0
  8  9  2  0  0  0
 37 38  1  0  0  0
 38 39  2  0  0  0
 39 34  1  0  0  0
  9  1  1  0  0  0
  8  4  1  0  0  0
 16 11  1  0  0  0
 22 17  1  0  0  0
 29 32  1  0  0  0
  5 10  1  0  0  0
 23 24  1  0  0  0
M  END
> <minimizedAffinity>
-11.12173

> <CNNscore>
0.7483981252

> <CNNaffinity>
7.6778974533

> <CNN_VS>
5.7461242676

> <CNNaffinity_variance>
0.0656401813

$$$$
[H]c1c([H])c([H])c(-c2c([H])c(-c3nn([H])c4c([H])c([H])c(C(=O)N([H])C([H])([H])c5c([H])c([H])c(OC([H])([H])[H])c([H])c5[H])c([H])c34)c([H])c(N([H])S(=O)(=O)C([H])([H])[H])c2[H])c([H])c1[H]


 41 45  0  0  0  0  0  0  0  0999 V2000
  -84.7082   29.0966    1.4285 C   0  0  0  0  0  0  0  0  0  0  0  0
  -83.3903   29.2994    1.7969 C   0  0  0  0  0  0  0  0  0  0  0  0
  -82.6912   30.4328    1.4636 C   0  0  0  0  0  0  0  0  0  0  0  0
  -83.2959   31.4323    0.7302 C   0  0  0  0  0  0  0  0  0  0  0  0
  -82.9392   32.6196    0.2496 N   0  0  0  0  0  0  0  0  0  0  0  0
  -83.9474   33.1780   -0.3983 N   0  0  0  0  0  0  0  0  0  0  0  0
  -85.0226   32.3574   -0.3627 C   0  0  0  0  0  0  0  0  0  0  0  0
  -84.6290   31.2479    0.3469 C   0  0  0  0  0  0  0  0  0  0  0  0
  -85.3144   30.1010    0.6923 C   0  0  0  0  0  0  0  0  0  0  0  0
  -81.9833   33.0306    0.3821 H   0  0  0  0  0  0  0  0  0  0  0  0
  -86.3446   32.5772   -0.9362 C   0  0  0  0  0  0  0  0  0  0  0  0
  -87.3022   31.5934   -0.6509 C   0  0  0  0  0  0  0  0  0  0  0  0
  -88.5910   31.6879   -1.1304 C   0  0  0  0  0  0  0  0  0  0  0  0
  -88.8983   32.7921   -1.9038 C   0  0  0  0  0  0  0  0  0  0  0  0
  -87.9943   33.7829   -2.2106 C   0  0  0  0  0  0  0  0  0  0  0  0
  -86.6935   33.6419   -1.6982 C   0  0  0  0  0  0  0  0  0  0  0  0
  -89.5650   30.6644   -0.8151 C   0  0  0  0  0  0  0  0  0  0  0  0
  -89.7025   30.0281    0.3835 C   0  0  0  0  0  0  0  0  0  0  0  0
  -90.6797   29.0604    0.5675 C   0  0  0  0  0  0  0  0  0  0  0  0
  -91.5543   28.6962   -0.4452 C   0  0  0  0  0  0  0  0  0  0  0  0
  -91.4253   29.3314   -1.6608 C   0  0  0  0  0  0  0  0  0  0  0  0
  -90.4516   30.2899   -1.8298 C   0  0  0  0  0  0  0  0  0  0  0  0
  -88.3172   34.9251   -2.9975 N   0  0  0  0  0  0  0  0  0  0  0  0
  -88.3532   35.8672   -2.5284 H   0  0  0  0  0  0  0  0  0  0  0  0
  -88.6515   34.8405   -4.6751 S   0  0  0  0  0  0  0  0  0  0  0  0
  -87.6467   35.8541   -5.6868 C   0  0  0  0  0  0  0  0  0  0  0  0
  -88.6384   33.3950   -5.1539 O   0  0  0  0  0  0  0  0  0  0  0  0
  -90.0937   35.2919   -4.9052 O   0  0  0  0  0  0  0  0  0  0  0  0
  -86.8611   27.8102    1.7022 N   0  0  0  0  0  0  0  0  0  0  0  0
  -85.4328   27.8952    1.8033 C   0  0  0  0  0  0  0  0  0  0  0  0
  -84.8217   26.8914    2.2264 O   0  0  0  0  0  0  0  0  0  0  0  0
  -87.3768   28.6463    1.3433 H   0  0  0  0  0  0  0  0  0  0  0  0
  -87.5926   26.6369    2.0684 C   0  0  0  0  0  0  0  0  0  0  0  0
  -90.2013   25.3348   -1.1119 C   0  0  0  0  0  0  0  0  0  0  0  0
  -89.0485   26.0529   -1.3642 C   0  0  0  0  0  0  0  0  0  0  0  0
  -88.2065   26.4675   -0.3298 C   0  0  0  0  0  0  0  0  0  0  0  0
  -88.5048   26.1689    0.9861 C   0  0  0  0  0  0  0  0  0  0  0  0
  -89.6570   25.4534    1.2041 C   0  0  0  0  0  0  0  0  0  0  0  0
  -90.5035   25.0344    0.1923 C   0  0  0  0  0  0  0  0  0  0  0  0
  -91.6513   25.8181   -3.0636 C   0  0  0  0  0  0  0  0  0  0  0  0
  -91.0275   24.9312   -2.1604 O   0  0  0  0  0  0  0  0  0  0  0  0
 40 41  1  0  0  0
 41 34  1  0  0  0
 34 35  2  0  0  0
 35 36  1  0  0  0
 36 37  2  0  0  0
 37 33  1  0  0  0
 33 29  1  0  0  0
 29 30  1  0  0  0
 30 31  2  0  0  0
 30  1  1  0  0  0
  1  2  2  0  0  0
  2  3  1  0  0  0
  3  4  2  0  0  0
  4  5  1  0  0  0
  5  6  1  0  0  0
  6  7  2  0  0  0
  7 11  1  0  0  0
 11 12  2  0  0  0
 12 13  1  0  0  0
 13 14  2  0  0  0
 14 15  1  0  0  0
 15 23  1  0  0  0
 23 25  1  0  0  0
 25 26  1  0  0  0
 25 27  2  0  0  0
 25 28  2  0  0  0
 15 16  2  0  0  0
 13 17  1  0  0  0
 17 18  2  0  0  0
 18 19  1  0  0  0
 19 20  2  0  0  0
 20 21  1  0  0  0
 21 22  2  0  0  0
  7  8  1  0  0  0
  8  9  2  0  0  0
 37 38  1  0  0  0
 38 39  2  0  0  0
 39 34  1  0  0  0
  9  1  1  0  0  0
  8  4  1  0  0  0
 16 11  1  0  0  0
 22 17  1  0  0  0
 29 32  1  0  0  0
  5 10  1  0  0  0
 23 24  1  0  0  0
M  END
> <minimizedAffinity>
-10.41978

> <CNNscore>
0.6963663101

> <CNNaffinity>
7.5769624710

> <CNN_VS>
5.2763414383

> <CNNaffinity_variance>
0.1573714018

$$$$
[H]c1c([H])c([H])c(-c2c([H])c(-c3nn([H])c4c([H])c([H])c(C(=O)N([H])C([H])([H])c5c([H])c([H])c(OC([H])([H])[H])c([H])c5[H])c([H])c34)c([H])c(N([H])S(=O)(=O)C([H])([H])[H])c2[H])c([H])c1[H]


 41 45  0  0  0  0  0  0  0  0999 V2000
  -84.7487   29.2023    1.4126 C   0  0  0  0  0  0  0  0  0  0  0  0
  -83.4860   29.5839    1.8293 C   0  0  0  0  0  0  0  0  0  0  0  0
  -82.9073   30.7715    1.4565 C   0  0  0  0  0  0  0  0  0  0  0  0
  -83.5837   31.6457    0.6312 C   0  0  0  0  0  0  0  0  0  0  0  0
  -83.3428   32.8368    0.0916 N   0  0  0  0  0  0  0  0  0  0  0  0
  -84.3723   33.2303   -0.6387 N   0  0  0  0  0  0  0  0  0  0  0  0
  -85.3441   32.2896   -0.6008 C   0  0  0  0  0  0  0  0  0  0  0  0
  -84.8629   31.2796    0.1977 C   0  0  0  0  0  0  0  0  0  0  0  0
  -85.4270   30.0810    0.5842 C   0  0  0  0  0  0  0  0  0  0  0  0
  -82.4505   33.3671    0.2424 H   0  0  0  0  0  0  0  0  0  0  0  0
  -86.6491   32.3142   -1.2498 C   0  0  0  0  0  0  0  0  0  0  0  0
  -87.2477   31.0635   -1.4590 C   0  0  0  0  0  0  0  0  0  0  0  0
  -88.4837   30.9522   -2.0587 C   0  0  0  0  0  0  0  0  0  0  0  0
  -89.1068   32.1246   -2.4449 C   0  0  0  0  0  0  0  0  0  0  0  0
  -88.5606   33.3740   -2.2611 C   0  0  0  0  0  0  0  0  0  0  0  0
  -87.2991   33.4355   -1.6450 C   0  0  0  0  0  0  0  0  0  0  0  0
  -89.0859   29.6506   -2.2559 C   0  0  0  0  0  0  0  0  0  0  0  0
  -88.4644   28.4462   -2.1021 C   0  0  0  0  0  0  0  0  0  0  0  0
  -89.1495   27.2592   -2.3187 C   0  0  0  0  0  0  0  0  0  0  0  0
  -90.4832   27.2381   -2.6976 C   0  0  0  0  0  0  0  0  0  0  0  0
  -91.1221   28.4483   -2.8567 C   0  0  0  0  0  0  0  0  0  0  0  0
  -90.4307   29.6186   -2.6384 C   0  0  0  0  0  0  0  0  0  0  0  0
  -89.2102   34.5804   -2.6491 N   0  0  0  0  0  0  0  0  0  0  0  0
  -90.0752   34.8780   -2.1276 H   0  0  0  0  0  0  0  0  0  0  0  0
  -88.6512   35.5738   -3.9274 S   0  0  0  0  0  0  0  0  0  0  0  0
  -89.9039   36.3582   -4.8635 C   0  0  0  0  0  0  0  0  0  0  0  0
  -87.6286   36.5809   -3.4183 O   0  0  0  0  0  0  0  0  0  0  0  0
  -87.8587   34.7059   -4.9047 O   0  0  0  0  0  0  0  0  0  0  0  0
  -86.7629   27.7257    1.7692 N   0  0  0  0  0  0  0  0  0  0  0  0
  -85.3469   27.9467    1.8302 C   0  0  0  0  0  0  0  0  0  0  0  0
  -84.6334   27.0143    2.2562 O   0  0  0  0  0  0  0  0  0  0  0  0
  -87.3641   28.5015    1.4081 H   0  0  0  0  0  0  0  0  0  0  0  0
  -87.3708   26.4971    2.1779 C   0  0  0  0  0  0  0  0  0  0  0  0
  -91.2715   25.9428    0.4192 C   0  0  0  0  0  0  0  0  0  0  0  0
  -90.9102   27.1281    1.0297 C   0  0  0  0  0  0  0  0  0  0  0  0
  -89.6440   27.3019    1.5933 C   0  0  0  0  0  0  0  0  0  0  0  0
  -88.7090   26.2850    1.5559 C   0  0  0  0  0  0  0  0  0  0  0  0
  -89.0981   25.1196    0.9417 C   0  0  0  0  0  0  0  0  0  0  0  0
  -90.3480   24.9290    0.3782 C   0  0  0  0  0  0  0  0  0  0  0  0
  -92.9458   24.6717   -0.8946 C   0  0  0  0  0  0  0  0  0  0  0  0
  -92.5415   25.7914   -0.1368 O   0  0  0  0  0  0  0  0  0  0  0  0
 40 41  1  0  0  0
 41 34  1  0  0  0
 34 35  2  0  0  0
 35 36  1  0  0  0
 36 37  2  0  0  0
 37 33  1  0  0  0
 33 29  1  0  0  0
 29 30  1  0  0  0
 30 31  2  0  0  0
 30  1  1  0  0  0
  1  2  2  0  0  0
  2  3  1  0  0  0
  3  4  2  0  0  0
  4  5  1  0  0  0
  5  6  1  0  0  0
  6  7  2  0  0  0
  7 11  1  0  0  0
 11 12  2  0  0  0
 12 13  1  0  0  0
 13 14  2  0  0  0
 14 15  1  0  0  0
 15 23  1  0  0  0
 23 25  1  0  0  0
 25 26  1  0  0  0
 25 27  2  0  0  0
 25 28  2  0  0  0
 15 16  2  0  0  0
 13 17  1  0  0  0
 17 18  2  0  0  0
 18 19  1  0  0  0
 19 20  2  0  0  0
 20 21  1  0  0  0
 21 22  2  0  0  0
  7  8  1  0  0  0
  8  9  2  0  0  0
 37 38  1  0  0  0
 38 39  2  0  0  0
 39 34  1  0  0  0
  9  1  1  0  0  0
  8  4  1  0  0  0
 16 11  1  0  0  0
 22 17  1  0  0  0
 29 32  1  0  0  0
  5 10  1  0  0  0
 23 24  1  0  0  0
M  END
> <minimizedAffinity>
-9.70408

> <CNNscore>
0.4752646089

> <CNNaffinity>
7.4111070633

> <CNN_VS>
3.5222368240

> <CNNaffinity_variance>
0.1386031508

$$$$
[H]c1c([H])c([H])c(-c2c([H])c(-c3nn([H])c4c([H])c([H])c(C(=O)N([H])C([H])([H])c5c([H])c([H])c(OC([H])([H])[H])c([H])c5[H])c([H])c34)c([H])c(N([H])S(=O)(=O)C([H])([H])[H])c2[H])c([H])c1[H]


 41 45  0  0  0  0  0  0  0  0999 V2000
  -84.7299   29.1341    1.4403 C   0  0  0  0  0  0  0  0  0  0  0  0
  -83.4190   29.4514    1.7480 C   0  0  0  0  0  0  0  0  0  0  0  0
  -82.8305   30.6315    1.3669 C   0  0  0  0  0  0  0  0  0  0  0  0
  -83.5460   31.5637    0.6444 C   0  0  0  0  0  0  0  0  0  0  0  0
  -83.3091   32.7666    0.1300 N   0  0  0  0  0  0  0  0  0  0  0  0
  -84.3862   33.2279   -0.4825 N   0  0  0  0  0  0  0  0  0  0  0  0
  -85.3874   32.3227   -0.3873 C   0  0  0  0  0  0  0  0  0  0  0  0
  -84.8741   31.2632    0.3221 C   0  0  0  0  0  0  0  0  0  0  0  0
  -85.4473   30.0710    0.7151 C   0  0  0  0  0  0  0  0  0  0  0  0
  -82.3857   33.2570    0.2145 H   0  0  0  0  0  0  0  0  0  0  0  0
  -86.7458   32.4223   -0.9065 C   0  0  0  0  0  0  0  0  0  0  0  0
  -87.0145   33.5514   -1.6935 C   0  0  0  0  0  0  0  0  0  0  0  0
  -88.2596   33.7589   -2.2471 C   0  0  0  0  0  0  0  0  0  0  0  0
  -89.2307   32.8078   -1.9932 C   0  0  0  0  0  0  0  0  0  0  0  0
  -89.0156   31.6845   -1.2283 C   0  0  0  0  0  0  0  0  0  0  0  0
  -87.7299   31.5173   -0.6863 C   0  0  0  0  0  0  0  0  0  0  0  0
  -88.5109   34.9274   -3.0637 C   0  0  0  0  0  0  0  0  0  0  0  0
  -89.7078   35.2808   -3.6142 C   0  0  0  0  0  0  0  0  0  0  0  0
  -89.8266   36.4310   -4.3808 C   0  0  0  0  0  0  0  0  0  0  0  0
  -88.7481   37.2684   -4.6230 C   0  0  0  0  0  0  0  0  0  0  0  0
  -87.5334   36.9222   -4.0728 C   0  0  0  0  0  0  0  0  0  0  0  0
  -87.4294   35.7782   -3.3139 C   0  0  0  0  0  0  0  0  0  0  0  0
  -90.0144   30.7007   -0.9786 N   0  0  0  0  0  0  0  0  0  0  0  0
  -90.2549   30.4678    0.0197 H   0  0  0  0  0  0  0  0  0  0  0  0
  -90.8460   29.8748   -2.2275 S   0  0  0  0  0  0  0  0  0  0  0  0
  -92.2548   30.6998   -2.8563 C   0  0  0  0  0  0  0  0  0  0  0  0
  -89.8882   29.4855   -3.3455 O   0  0  0  0  0  0  0  0  0  0  0  0
  -91.3367   28.5349   -1.6794 O   0  0  0  0  0  0  0  0  0  0  0  0
  -86.7539   27.6738    1.8080 N   0  0  0  0  0  0  0  0  0  0  0  0
  -85.3363   27.8849    1.8652 C   0  0  0  0  0  0  0  0  0  0  0  0
  -84.6287   26.9495    2.2946 O   0  0  0  0  0  0  0  0  0  0  0  0
  -87.3502   28.4521    1.4440 H   0  0  0  0  0  0  0  0  0  0  0  0
  -87.3699   26.4516    2.2238 C   0  0  0  0  0  0  0  0  0  0  0  0
  -90.4612   25.0809   -0.4558 C   0  0  0  0  0  0  0  0  0  0  0  0
  -90.6339   25.0819    0.9147 C   0  0  0  0  0  0  0  0  0  0  0  0
  -89.6302   25.5311    1.7759 C   0  0  0  0  0  0  0  0  0  0  0  0
  -88.4261   25.9911    1.2778 C   0  0  0  0  0  0  0  0  0  0  0  0
  -88.2853   25.9781   -0.0886 C   0  0  0  0  0  0  0  0  0  0  0  0
  -89.2682   25.5366   -0.9575 C   0  0  0  0  0  0  0  0  0  0  0  0
  -91.3311   23.5644   -2.2133 C   0  0  0  0  0  0  0  0  0  0  0  0
  -91.4771   24.6277   -1.2969 O   0  0  0  0  0  0  0  0  0  0  0  0
 40 41  1  0  0  0
 41 34  1  0  0  0
 34 35  2  0  0  0
 35 36  1  0  0  0
 36 37  2  0  0  0
 37 33  1  0  0  0
 33 29  1  0  0  0
 29 30  1  0  0  0
 30 31  2  0  0  0
 30  1  1  0  0  0
  1  2  2  0  0  0
  2  3  1  0  0  0
  3  4  2  0  0  0
  4  5  1  0  0  0
  5  6  1  0  0  0
  6  7  2  0  0  0
  7 11  1  0  0  0
 11 12  2  0  0  0
 12 13  1  0  0  0
 13 14  2  0  0  0
 14 15  1  0  0  0
 15 23  1  0  0  0
 23 25  1  0  0  0
 25 26  1  0  0  0
 25 27  2  0  0  0
 25 28  2  0  0  0
 15 16  2  0  0  0
 13 17  1  0  0  0
 17 18  2  0  0  0
 18 19  1  0  0  0
 19 20  2  0  0  0
 20 21  1  0  0  0
 21 22  2  0  0  0
  7  8  1  0  0  0
  8  9  2  0  0  0
 37 38  1  0  0  0
 38 39  2  0  0  0
 39 34  1  0  0  0
  9  1  1  0  0  0
  8  4  1  0  0  0
 16 11  1  0  0  0
 22 17  1  0  0  0
 29 32  1  0  0  0
  5 10  1  0  0  0
 23 24  1  0  0  0
M  END
> <minimizedAffinity>
-10.52364

> <CNNscore>
0.4702164233

> <CNNaffinity>
7.3781714439

> <CNN_VS>
3.4693374634

> <CNNaffinity_variance>
0.1011091694

$$$$
[H]c1c([H])c([H])c(-c2c([H])c(-c3nn([H])c4c([H])c([H])c(C(=O)N([H])C([H])([H])c5c([H])c([H])c(OC([H])([H])[H])c([H])c5[H])c([H])c34)c([H])c(N([H])S(=O)(=O)C([H])([H])[H])c2[H])c([H])c1[H]


 41 45  0  0  0  0  0  0  0  0999 V2000
  -84.8728   31.1168    0.3735 C   0  0  0  0  0  0  0  0  0  0  0  0
  -83.9143   30.9974    1.3638 C   0  0  0  0  0  0  0  0  0  0  0  0
  -83.7487   29.8534    2.1042 C   0  0  0  0  0  0  0  0  0  0  0  0
  -84.5550   28.7569    1.8794 C   0  0  0  0  0  0  0  0  0  0  0  0
  -84.6712   27.5320    2.3832 N   0  0  0  0  0  0  0  0  0  0  0  0
  -85.6415   26.8718    1.7744 N   0  0  0  0  0  0  0  0  0  0  0  0
  -86.2058   27.6593    0.8299 C   0  0  0  0  0  0  0  0  0  0  0  0
  -85.5315   28.8559    0.8820 C   0  0  0  0  0  0  0  0  0  0  0  0
  -85.6815   30.0152    0.1485 C   0  0  0  0  0  0  0  0  0  0  0  0
  -84.0630   27.1675    3.1562 H   0  0  0  0  0  0  0  0  0  0  0  0
  -87.2963   27.3348   -0.0814 C   0  0  0  0  0  0  0  0  0  0  0  0
  -88.0407   28.4262   -0.5516 C   0  0  0  0  0  0  0  0  0  0  0  0
  -89.0947   28.2524   -1.4226 C   0  0  0  0  0  0  0  0  0  0  0  0
  -89.3863   26.9580   -1.8117 C   0  0  0  0  0  0  0  0  0  0  0  0
  -88.6858   25.8560   -1.3783 C   0  0  0  0  0  0  0  0  0  0  0  0
  -87.6197   26.0846   -0.4918 C   0  0  0  0  0  0  0  0  0  0  0  0
  -89.8430   29.3953   -1.9017 C   0  0  0  0  0  0  0  0  0  0  0  0
  -89.6514   30.6939   -1.5311 C   0  0  0  0  0  0  0  0  0  0  0  0
  -90.4340   31.7086   -2.0629 C   0  0  0  0  0  0  0  0  0  0  0  0
  -91.4376   31.4567   -2.9862 C   0  0  0  0  0  0  0  0  0  0  0  0
  -91.6413   30.1488   -3.3684 C   0  0  0  0  0  0  0  0  0  0  0  0
  -90.8574   29.1516   -2.8331 C   0  0  0  0  0  0  0  0  0  0  0  0
  -88.9810   24.5252   -1.7903 N   0  0  0  0  0  0  0  0  0  0  0  0
  -88.4291   24.1087   -2.5846 H   0  0  0  0  0  0  0  0  0  0  0  0
  -90.1945   23.5662   -1.0546 S   0  0  0  0  0  0  0  0  0  0  0  0
  -89.6077   22.1945   -0.1410 C   0  0  0  0  0  0  0  0  0  0  0  0
  -91.1284   24.4298   -0.2174 O   0  0  0  0  0  0  0  0  0  0  0  0
  -91.0979   23.0025   -2.1513 O   0  0  0  0  0  0  0  0  0  0  0  0
  -86.3093   32.8234   -0.8049 N   0  0  0  0  0  0  0  0  0  0  0  0
  -85.0217   32.3325   -0.4067 C   0  0  0  0  0  0  0  0  0  0  0  0
  -84.0186   32.9914   -0.7529 O   0  0  0  0  0  0  0  0  0  0  0  0
  -87.1526   32.2781   -0.5128 H   0  0  0  0  0  0  0  0  0  0  0  0
  -86.4761   34.0171   -1.5750 C   0  0  0  0  0  0  0  0  0  0  0  0
  -89.1371   33.5036   -4.9323 C   0  0  0  0  0  0  0  0  0  0  0  0
  -89.2392   34.5873   -4.0818 C   0  0  0  0  0  0  0  0  0  0  0  0
  -88.3715   34.7492   -2.9993 C   0  0  0  0  0  0  0  0  0  0  0  0
  -87.3780   33.8226   -2.7460 C   0  0  0  0  0  0  0  0  0  0  0  0
  -87.3019   32.7572   -3.6097 C   0  0  0  0  0  0  0  0  0  0  0  0
  -88.1526   32.5799   -4.6871 C   0  0  0  0  0  0  0  0  0  0  0  0
  -91.3861   33.6905   -5.9581 C   0  0  0  0  0  0  0  0  0  0  0  0
  -90.0145   33.3621   -6.0070 O   0  0  0  0  0  0  0  0  0  0  0  0
 40 41  1  0  0  0
 41 34  1  0  0  0
 34 35  2  0  0  0
 35 36  1  0  0  0
 36 37  2  0  0  0
 37 33  1  0  0  0
 33 29  1  0  0  0
 29 30  1  0  0  0
 30 31  2  0  0  0
 30  1  1  0  0  0
  1  2  2  0  0  0
  2  3  1  0  0  0
  3  4  2  0  0  0
  4  5  1  0  0  0
  5  6  1  0  0  0
  6  7  2  0  0  0
  7 11  1  0  0  0
 11 12  2  0  0  0
 12 13  1  0  0  0
 13 14  2  0  0  0
 14 15  1  0  0  0
 15 23  1  0  0  0
 23 25  1  0  0  0
 25 26  1  0  0  0
 25 27  2  0  0  0
 25 28  2  0  0  0
 15 16  2  0  0  0
 13 17  1  0  0  0
 17 18  2  0  0  0
 18 19  1  0  0  0
 19 20  2  0  0  0
 20 21  1  0  0  0
 21 22  2  0  0  0
  7  8  1  0  0  0
  8  9  2  0  0  0
 37 38  1  0  0  0
 38 39  2  0  0  0
 39 34  1  0  0  0
  9  1  1  0  0  0
  8  4  1  0  0  0
 16 11  1  0  0  0
 22 17  1  0  0  0
 29 32  1  0  0  0
  5 10  1  0  0  0
 23 24  1  0  0  0
M  END
> <minimizedAffinity>
-9.34274

> <CNNscore>
0.4099578261

> <CNNaffinity>
7.2147979736

> <CNN_VS>
2.9577629566

> <CNNaffinity_variance>
0.2045629919

$$$$
[H]OC([H])([H])C([H])(N([H])c1nc2n(c(=O)c1-c1nn(C([H])([H])[H])c([H])c1[H])C([H])([H])C([H])([H])OC2([H])C([H])([H])C([H])([H])OC([H])([H])[H])C([H])([H])[H]


 28 30  0  0  0  0  0  0  0  0999 V2000
  -87.4491   31.2280   -1.2807 C   0  0  0  0  0  0  0  0  0  0  0  0
  -86.6622   30.4814   -0.4895 N   0  0  0  0  0  0  0  0  0  0  0  0
  -85.4736   30.9124   -0.0251 C   0  0  0  0  0  0  0  0  0  0  0  0
  -85.0654   32.1381   -0.3710 N   0  0  0  0  0  0  0  0  0  0  0  0
  -83.7897   32.5951    0.1239 C   0  0  0  0  0  0  0  0  0  0  0  0
  -82.8559   31.4066    0.0425 C   0  0  0  0  0  0  0  0  0  0  0  0
  -83.2775   30.3280    0.7568 O   0  0  0  0  0  0  0  0  0  0  0  0
  -84.6099   30.0900    0.8507 C   0  0  0  0  0  0  0  0  0  0  0  0
  -85.8150   32.9147   -1.1553 C   0  0  0  0  0  0  0  0  0  0  0  0
  -85.4104   34.0582   -1.4644 O   0  0  0  0  0  0  0  0  0  0  0  0
  -87.0429   32.4996   -1.6491 C   0  0  0  0  0  0  0  0  0  0  0  0
  -87.8715   33.3199   -2.4980 C   0  0  0  0  0  0  0  0  0  0  0  0
  -89.1026   33.8420   -2.2250 C   0  0  0  0  0  0  0  0  0  0  0  0
  -89.4753   34.5487   -3.3508 C   0  0  0  0  0  0  0  0  0  0  0  0
  -88.4993   34.4542   -4.2712 N   0  0  0  0  0  0  0  0  0  0  0  0
  -88.4952   35.0593   -5.6092 C   0  0  0  0  0  0  0  0  0  0  0  0
  -87.5580   33.7198   -3.7416 N   0  0  0  0  0  0  0  0  0  0  0  0
  -88.6824   30.6763   -1.7086 N   0  0  0  0  0  0  0  0  0  0  0  0
  -89.5333   30.9115   -1.1137 H   0  0  0  0  0  0  0  0  0  0  0  0
  -88.8145   29.8504   -2.8628 C   0  0  0  0  0  0  0  0  0  0  0  0
  -90.2148   30.0359   -3.4463 C   0  0  0  0  0  0  0  0  0  0  0  0
  -87.8453   30.1253   -3.9699 C   0  0  0  0  0  0  0  0  0  0  0  0
  -88.4623   30.9077   -4.9474 O   0  0  0  0  0  0  0  0  0  0  0  0
  -87.7742   31.4288   -5.4547 H   0  0  0  0  0  0  0  0  0  0  0  0
  -85.1679   30.2500    2.2580 C   0  0  0  0  0  0  0  0  0  0  0  0
  -85.3701   28.9660    2.9818 C   0  0  0  0  0  0  0  0  0  0  0  0
  -84.8145   27.8495    2.4244 O   0  0  0  0  0  0  0  0  0  0  0  0
  -83.5396   27.5767    2.8546 C   0  0  0  0  0  0  0  0  0  0  0  0
 20 22  1  0  0  0
 22 23  1  0  0  0
 20 18  1  0  0  0
 18  1  1  0  0  0
  1  2  1  0  0  0
  2  3  2  0  0  0
  3  4  1  0  0  0
  4  5  1  0  0  0
  5  6  1  0  0  0
  6  7  1  0  0  0
  7  8  1  0  0  0
  8 25  1  0  0  0
 25 26  1  0  0  0
 26 27  1  0  0  0
 27 28  1  0  0  0
  4  9  1  0  0  0
  9 10  2  0  0  0
  9 11  1  0  0  0
 11 12  1  0  0  0
 12 13  1  0  0  0
 13 14  2  0  0  0
 14 15  1  0  0  0
 15 16  1  0  0  0
 15 17  1  0  0  0
 20 21  1  0  0  0
 11  1  2  0  0  0
 17 12  2  0  0  0
  8  3  1  0  0  0
 23 24  1  0  0  0
 18 19  1  0  0  0
M  END
> <minimizedAffinity>
-6.53212

> <CNNscore>
0.5441431999

> <CNNaffinity>
6.3269453049

> <CNN_VS>
3.4427642822

> <CNNaffinity_variance>
0.0247641709

$$$$
[H]OC([H])([H])C([H])(N([H])c1nc2n(c(=O)c1-c1nn(C([H])([H])[H])c([H])c1[H])C([H])([H])C([H])([H])OC2([H])C([H])([H])C([H])([H])OC([H])([H])[H])C([H])([H])[H]


 28 30  0  0  0  0  0  0  0  0999 V2000
  -86.8396   29.1400   -0.6130 C   0  0  0  0  0  0  0  0  0  0  0  0
  -85.5538   29.3823   -0.3117 N   0  0  0  0  0  0  0  0  0  0  0  0
  -85.0644   30.6258   -0.1441 C   0  0  0  0  0  0  0  0  0  0  0  0
  -85.9007   31.6598   -0.2854 N   0  0  0  0  0  0  0  0  0  0  0  0
  -85.3726   32.9908   -0.1101 C   0  0  0  0  0  0  0  0  0  0  0  0
  -84.0080   32.9922   -0.7650 C   0  0  0  0  0  0  0  0  0  0  0  0
  -83.1491   32.0740   -0.2448 O   0  0  0  0  0  0  0  0  0  0  0  0
  -83.6480   30.8906    0.1925 C   0  0  0  0  0  0  0  0  0  0  0  0
  -87.1865   31.4660   -0.5843 C   0  0  0  0  0  0  0  0  0  0  0  0
  -87.9489   32.4507   -0.7109 O   0  0  0  0  0  0  0  0  0  0  0  0
  -87.7202   30.1982   -0.7629 C   0  0  0  0  0  0  0  0  0  0  0  0
  -89.1058   29.9624   -1.0861 C   0  0  0  0  0  0  0  0  0  0  0  0
  -90.1774   29.9416   -0.2412 C   0  0  0  0  0  0  0  0  0  0  0  0
  -91.2793   29.6758   -1.0292 C   0  0  0  0  0  0  0  0  0  0  0  0
  -90.8826   29.5411   -2.3071 N   0  0  0  0  0  0  0  0  0  0  0  0
  -91.7392   29.2540   -3.4648 C   0  0  0  0  0  0  0  0  0  0  0  0
  -89.5883   29.7156   -2.3154 N   0  0  0  0  0  0  0  0  0  0  0  0
  -87.2481   27.7913   -0.7630 N   0  0  0  0  0  0  0  0  0  0  0  0
  -87.4874   27.4808   -1.7528 H   0  0  0  0  0  0  0  0  0  0  0  0
  -87.3450   26.8749    0.3244 C   0  0  0  0  0  0  0  0  0  0  0  0
  -87.8839   27.6146    1.5483 C   0  0  0  0  0  0  0  0  0  0  0  0
  -88.2425   25.6979    0.1011 C   0  0  0  0  0  0  0  0  0  0  0  0
  -88.6894   25.2113    1.3307 O   0  0  0  0  0  0  0  0  0  0  0  0
  -89.5608   24.7325    1.2141 H   0  0  0  0  0  0  0  0  0  0  0  0
  -83.5310   30.6895    1.6969 C   0  0  0  0  0  0  0  0  0  0  0  0
  -83.2231   29.2912    2.1015 C   0  0  0  0  0  0  0  0  0  0  0  0
  -84.1793   28.6326    2.8212 O   0  0  0  0  0  0  0  0  0  0  0  0
  -85.2042   29.4311    3.2646 C   0  0  0  0  0  0  0  0  0  0  0  0
 20 22  1  0  0  0
 22 23  1  0  0  0
 20 18  1  0  0  0
 18  1  1  0  0  0
  1  2  1  0  0  0
  2  3  2  0  0  0
  3  4  1  0  0  0
  4  5  1  0  0  0
  5  6  1  0  0  0
  6  7  1  0  0  0
  7  8  1  0  0  0
  8 25  1  0  0  0
 25 26  1  0  0  0
 26 27  1  0  0  0
 27 28  1  0  0  0
  4  9  1  0  0  0
  9 10  2  0  0  0
  9 11  1  0  0  0
 11 12  1  0  0  0
 12 13  1  0  0  0
 13 14  2  0  0  0
 14 15  1  0  0  0
 15 16  1  0  0  0
 15 17  1  0  0  0
 20 21  1  0  0  0
 11  1  2  0  0  0
 17 12  2  0  0  0
  8  3  1  0  0  0
 23 24  1  0  0  0
 18 19  1  0  0  0
M  END
> <minimizedAffinity>
-6.94355

> <CNNscore>
0.3919321299

> <CNNaffinity>
6.0650730133

> <CNN_VS>
2.3770968914

> <CNNaffinity_variance>
0.2283386290

$$$$
[H]OC([H])([H])C([H])(N([H])c1nc2n(c(=O)c1-c1nn(C([H])([H])[H])c([H])c1[H])C([H])([H])C([H])([H])OC2([H])C([H])([H])C([H])([H])OC([H])([H])[H])C([H])([H])[H]


 28 30  0  0  0  0  0  0  0  0999 V2000
  -87.6033   30.6519   -0.2671 C   0  0  0  0  0  0  0  0  0  0  0  0
  -88.6466   30.9110   -1.0715 N   0  0  0  0  0  0  0  0  0  0  0  0
  -88.6446   31.9137   -1.9707 C   0  0  0  0  0  0  0  0  0  0  0  0
  -87.5529   32.6810   -2.0610 N   0  0  0  0  0  0  0  0  0  0  0  0
  -87.5554   33.7573   -3.0215 C   0  0  0  0  0  0  0  0  0  0  0  0
  -88.9394   34.3679   -2.9665 C   0  0  0  0  0  0  0  0  0  0  0  0
  -89.9387   33.4875   -3.2452 O   0  0  0  0  0  0  0  0  0  0  0  0
  -89.7935   32.1948   -2.8597 C   0  0  0  0  0  0  0  0  0  0  0  0
  -86.4928   32.4599   -1.2816 C   0  0  0  0  0  0  0  0  0  0  0  0
  -85.4830   33.1922   -1.3858 O   0  0  0  0  0  0  0  0  0  0  0  0
  -86.4644   31.4356   -0.3467 C   0  0  0  0  0  0  0  0  0  0  0  0
  -85.3313   31.1761    0.5071 C   0  0  0  0  0  0  0  0  0  0  0  0
  -84.6132   32.0678    1.2500 C   0  0  0  0  0  0  0  0  0  0  0  0
  -83.6355   31.3318    1.8888 C   0  0  0  0  0  0  0  0  0  0  0  0
  -83.7620   30.0389    1.5409 N   0  0  0  0  0  0  0  0  0  0  0  0
  -82.9231   28.9230    1.9964 C   0  0  0  0  0  0  0  0  0  0  0  0
  -84.7755   29.9717    0.7200 N   0  0  0  0  0  0  0  0  0  0  0  0
  -87.7119   29.5686    0.6401 N   0  0  0  0  0  0  0  0  0  0  0  0
  -87.4206   29.7667    1.6447 H   0  0  0  0  0  0  0  0  0  0  0  0
  -88.1795   28.2751    0.2658 C   0  0  0  0  0  0  0  0  0  0  0  0
  -87.1609   27.2302    0.7201 C   0  0  0  0  0  0  0  0  0  0  0  0
  -89.4997   27.8715    0.8444 C   0  0  0  0  0  0  0  0  0  0  0  0
  -89.9675   26.7309    0.1898 O   0  0  0  0  0  0  0  0  0  0  0  0
  -90.5891   26.2226    0.7878 H   0  0  0  0  0  0  0  0  0  0  0  0
  -89.6754   31.2147   -4.0185 C   0  0  0  0  0  0  0  0  0  0  0  0
  -90.9813   30.7835   -4.5860 C   0  0  0  0  0  0  0  0  0  0  0  0
  -91.3596   29.4919   -4.3516 O   0  0  0  0  0  0  0  0  0  0  0  0
  -91.0032   29.0134   -3.1152 C   0  0  0  0  0  0  0  0  0  0  0  0
 20 22  1  0  0  0
 22 23  1  0  0  0
 20 18  1  0  0  0
 18  1  1  0  0  0
  1  2  1  0  0  0
  2  3  2  0  0  0
  3  4  1  0  0  0
  4  5  1  0  0  0
  5  6  1  0  0  0
  6  7  1  0  0  0
  7  8  1  0  0  0
  8 25  1  0  0  0
 25 26  1  0  0  0
 26 27  1  0  0  0
 27 28  1  0  0  0
  4  9  1  0  0  0
  9 10  2  0  0  0
  9 11  1  0  0  0
 11 12  1  0  0  0
 12 13  1  0  0  0
 13 14  2  0  0  0
 14 15  1  0  0  0
 15 16  1  0  0  0
 15 17  1  0  0  0
 20 21  1  0  0  0
 11  1  2  0  0  0
 17 12  2  0  0  0
  8  3  1  0  0  0
 23 24  1  0  0  0
 18 19  1  0  0  0
M  END
> <minimizedAffinity>
-6.12245

> <CNNscore>
0.3795554936

> <CNNaffinity>
6.1505293846

> <CNN_VS>
2.3344671726

> <CNNaffinity_variance>
0.3483057618

$$$$
[H]OC([H])([H])C([H])(N([H])c1nc2n(c(=O)c1-c1nn(C([H])([H])[H])c([H])c1[H])C([H])([H])C([H])([H])OC2([H])C([H])([H])C([H])([H])OC([H])([H])[H])C([H])([H])[H]


 28 30  0  0  0  0  0  0  0  0999 V2000
  -87.4290   29.8917   -0.5425 C   0  0  0  0  0  0  0  0  0  0  0  0
  -88.4747   29.1488   -0.9392 N   0  0  0  0  0  0  0  0  0  0  0  0
  -88.7954   27.9733   -0.3653 C   0  0  0  0  0  0  0  0  0  0  0  0
  -88.0351   27.5326    0.6428 N   0  0  0  0  0  0  0  0  0  0  0  0
  -88.3781   26.2708    1.2523 C   0  0  0  0  0  0  0  0  0  0  0  0
  -88.7862   25.3530    0.1200 C   0  0  0  0  0  0  0  0  0  0  0  0
  -89.8325   25.8196   -0.6142 O   0  0  0  0  0  0  0  0  0  0  0  0
  -89.9511   27.1582   -0.8007 C   0  0  0  0  0  0  0  0  0  0  0  0
  -86.9863   28.2380    1.0700 C   0  0  0  0  0  0  0  0  0  0  0  0
  -86.2905   27.8036    2.0156 O   0  0  0  0  0  0  0  0  0  0  0  0
  -86.6307   29.4514    0.4998 C   0  0  0  0  0  0  0  0  0  0  0  0
  -85.5023   30.2325    0.9433 C   0  0  0  0  0  0  0  0  0  0  0  0
  -85.2709   30.7512    2.1842 C   0  0  0  0  0  0  0  0  0  0  0  0
  -84.0626   31.4137    2.1014 C   0  0  0  0  0  0  0  0  0  0  0  0
  -83.5830   31.2968    0.8505 N   0  0  0  0  0  0  0  0  0  0  0  0
  -82.3244   31.8543    0.3390 C   0  0  0  0  0  0  0  0  0  0  0  0
  -84.4553   30.5914    0.1817 N   0  0  0  0  0  0  0  0  0  0  0  0
  -87.1853   31.1153   -1.2148 N   0  0  0  0  0  0  0  0  0  0  0  0
  -86.5696   31.0600   -2.0815 H   0  0  0  0  0  0  0  0  0  0  0  0
  -87.7163   32.3663   -0.7851 C   0  0  0  0  0  0  0  0  0  0  0  0
  -87.0006   33.4907   -1.5328 C   0  0  0  0  0  0  0  0  0  0  0  0
  -89.1828   32.5602   -1.0143 C   0  0  0  0  0  0  0  0  0  0  0  0
  -89.3781   33.5531   -1.9756 O   0  0  0  0  0  0  0  0  0  0  0  0
  -90.2597   33.4211   -2.4312 H   0  0  0  0  0  0  0  0  0  0  0  0
  -91.1716   27.7696   -0.1271 C   0  0  0  0  0  0  0  0  0  0  0  0
  -91.9822   28.6452   -1.0158 C   0  0  0  0  0  0  0  0  0  0  0  0
  -91.6347   28.6745   -2.3366 O   0  0  0  0  0  0  0  0  0  0  0  0
  -92.3637   29.5574   -3.0942 C   0  0  0  0  0  0  0  0  0  0  0  0
 20 22  1  0  0  0
 22 23  1  0  0  0
 20 18  1  0  0  0
 18  1  1  0  0  0
  1  2  1  0  0  0
  2  3  2  0  0  0
  3  4  1  0  0  0
  4  5  1  0  0  0
  5  6  1  0  0  0
  6  7  1  0  0  0
  7  8  1  0  0  0
  8 25  1  0  0  0
 25 26  1  0  0  0
 26 27  1  0  0  0
 27 28  1  0  0  0
  4  9  1  0  0  0
  9 10  2  0  0  0
  9 11  1  0  0  0
 11 12  1  0  0  0
 12 13  1  0  0  0
 13 14  2  0  0  0
 14 15  1  0  0  0
 15 16  1  0  0  0
 15 17  1  0  0  0
 20 21  1  0  0  0
 11  1  2  0  0  0
 17 12  2  0  0  0
  8  3  1  0  0  0
 23 24  1  0  0  0
 18 19  1  0  0  0
M  END
> <minimizedAffinity>
-6.39917

> <CNNscore>
0.3200248778

> <CNNaffinity>
6.0863733292

> <CNN_VS>
1.9477908611

> <CNNaffinity_variance>
0.0921356976

$$$$
[H]OC([H])([H])C([H])(N([H])c1nc2n(c(=O)c1-c1nn(C([H])([H])[H])c([H])c1[H])C([H])([H])C([H])([H])OC2([H])C([H])([H])C([H])([H])OC([H])([H])[H])C([H])([H])[H]


 28 30  0  0  0  0  0  0  0  0999 V2000
  -87.6880   30.3884   -0.2269 C   0  0  0  0  0  0  0  0  0  0  0  0
  -88.7424   29.6851   -0.6698 N   0  0  0  0  0  0  0  0  0  0  0  0
  -88.8286   28.3461   -0.5533 C   0  0  0  0  0  0  0  0  0  0  0  0
  -87.8165   27.6948    0.0299 N   0  0  0  0  0  0  0  0  0  0  0  0
  -87.9094   26.2601    0.1489 C   0  0  0  0  0  0  0  0  0  0  0  0
  -88.5132   25.7679   -1.1489 C   0  0  0  0  0  0  0  0  0  0  0  0
  -89.7373   26.2968   -1.4196 O   0  0  0  0  0  0  0  0  0  0  0  0
  -89.9937   27.5732   -1.0378 C   0  0  0  0  0  0  0  0  0  0  0  0
  -86.7489   28.3530    0.4849 C   0  0  0  0  0  0  0  0  0  0  0  0
  -85.8149   27.7201    1.0270 O   0  0  0  0  0  0  0  0  0  0  0  0
  -86.6308   29.7311    0.3797 C   0  0  0  0  0  0  0  0  0  0  0  0
  -85.4877   30.4654    0.8635 C   0  0  0  0  0  0  0  0  0  0  0  0
  -85.1892   30.8102    2.1498 C   0  0  0  0  0  0  0  0  0  0  0  0
  -83.9962   31.5024    2.0921 C   0  0  0  0  0  0  0  0  0  0  0  0
  -83.5906   31.5716    0.8118 N   0  0  0  0  0  0  0  0  0  0  0  0
  -82.3717   32.2209    0.3128 C   0  0  0  0  0  0  0  0  0  0  0  0
  -84.4924   30.9488    0.1014 N   0  0  0  0  0  0  0  0  0  0  0  0
  -87.7035   31.7952   -0.3978 N   0  0  0  0  0  0  0  0  0  0  0  0
  -87.8376   32.3738    0.4857 H   0  0  0  0  0  0  0  0  0  0  0  0
  -87.5517   32.4339   -1.6630 C   0  0  0  0  0  0  0  0  0  0  0  0
  -88.8164   33.2360   -1.9672 C   0  0  0  0  0  0  0  0  0  0  0  0
  -86.4003   33.3839   -1.7745 C   0  0  0  0  0  0  0  0  0  0  0  0
  -85.9165   33.6832   -0.4999 O   0  0  0  0  0  0  0  0  0  0  0  0
  -84.9543   33.9547   -0.5530 H   0  0  0  0  0  0  0  0  0  0  0  0
  -91.0548   27.6916    0.0473 C   0  0  0  0  0  0  0  0  0  0  0  0
  -91.5805   26.3859    0.5290 C   0  0  0  0  0  0  0  0  0  0  0  0
  -90.9729   25.8428    1.6254 O   0  0  0  0  0  0  0  0  0  0  0  0
  -90.8923   24.4724    1.6071 C   0  0  0  0  0  0  0  0  0  0  0  0
 20 22  1  0  0  0
 22 23  1  0  0  0
 20 18  1  0  0  0
 18  1  1  0  0  0
  1  2  1  0  0  0
  2  3  2  0  0  0
  3  4  1  0  0  0
  4  5  1  0  0  0
  5  6  1  0  0  0
  6  7  1  0  0  0
  7  8  1  0  0  0
  8 25  1  0  0  0
 25 26  1  0  0  0
 26 27  1  0  0  0
 27 28  1  0  0  0
  4  9  1  0  0  0
  9 10  2  0  0  0
  9 11  1  0  0  0
 11 12  1  0  0  0
 12 13  1  0  0  0
 13 14  2  0  0  0
 14 15  1  0  0  0
 15 16  1  0  0  0
 15 17  1  0  0  0
 20 21  1  0  0  0
 11  1  2  0  0  0
 17 12  2  0  0  0
  8  3  1  0  0  0
 23 24  1  0  0  0
 18 19  1  0  0  0
M  END
> <minimizedAffinity>
-6.24037

> <CNNscore>
0.2697992623

> <CNNaffinity>
6.0587730408

> <CNN_VS>
1.6346524954

> <CNNaffinity_variance>
0.0844958425

$$$$
[H]OC([H])([H])C([H])(N([H])c1nc2n(c(=O)c1-c1nn(C([H])([H])[H])c([H])c1[H])C([H])([H])C([H])([H])OC2([H])C([H])([H])C([H])([H])OC([H])([H])[H])C([H])([H])[H]


 28 30  0  0  0  0  0  0  0  0999 V2000
  -87.1950   30.2670   -1.4667 C   0  0  0  0  0  0  0  0  0  0  0  0
  -86.5359   29.3783   -0.7060 N   0  0  0  0  0  0  0  0  0  0  0  0
  -85.6927   29.7427    0.2789 C   0  0  0  0  0  0  0  0  0  0  0  0
  -85.5082   31.0481    0.5038 N   0  0  0  0  0  0  0  0  0  0  0  0
  -84.6007   31.4355    1.5562 C   0  0  0  0  0  0  0  0  0  0  0  0
  -83.4283   30.4817    1.4738 C   0  0  0  0  0  0  0  0  0  0  0  0
  -83.7752   29.1731    1.6111 O   0  0  0  0  0  0  0  0  0  0  0  0
  -84.9709   28.7618    1.1193 C   0  0  0  0  0  0  0  0  0  0  0  0
  -86.1424   31.9663   -0.2275 C   0  0  0  0  0  0  0  0  0  0  0  0
  -85.9527   33.1820    0.0031 O   0  0  0  0  0  0  0  0  0  0  0  0
  -87.0166   31.6228   -1.2481 C   0  0  0  0  0  0  0  0  0  0  0  0
  -87.7139   32.5959   -2.0524 C   0  0  0  0  0  0  0  0  0  0  0  0
  -88.9028   33.2121   -1.7887 C   0  0  0  0  0  0  0  0  0  0  0  0
  -89.1423   34.0520   -2.8578 C   0  0  0  0  0  0  0  0  0  0  0  0
  -88.1296   33.9441   -3.7360 N   0  0  0  0  0  0  0  0  0  0  0  0
  -87.9925   34.6649   -5.0080 C   0  0  0  0  0  0  0  0  0  0  0  0
  -87.2941   33.0738   -3.2358 N   0  0  0  0  0  0  0  0  0  0  0  0
  -88.0613   29.7726   -2.4733 N   0  0  0  0  0  0  0  0  0  0  0  0
  -87.7429   29.9169   -3.4789 H   0  0  0  0  0  0  0  0  0  0  0  0
  -89.2949   29.1152   -2.1939 C   0  0  0  0  0  0  0  0  0  0  0  0
  -90.3971   29.7509   -3.0405 C   0  0  0  0  0  0  0  0  0  0  0  0
  -89.3245   27.6460   -2.4787 C   0  0  0  0  0  0  0  0  0  0  0  0
  -88.3068   27.0112   -1.7649 O   0  0  0  0  0  0  0  0  0  0  0  0
  -88.5452   26.0518   -1.6070 H   0  0  0  0  0  0  0  0  0  0  0  0
  -85.9595   28.3201    2.1893 C   0  0  0  0  0  0  0  0  0  0  0  0
  -86.5011   26.9490    1.9883 C   0  0  0  0  0  0  0  0  0  0  0  0
  -87.6702   26.8438    1.2896 O   0  0  0  0  0  0  0  0  0  0  0  0
  -88.6565   27.7042    1.7039 C   0  0  0  0  0  0  0  0  0  0  0  0
 20 22  1  0  0  0
 22 23  1  0  0  0
 20 18  1  0  0  0
 18  1  1  0  0  0
  1  2  1  0  0  0
  2  3  2  0  0  0
  3  4  1  0  0  0
  4  5  1  0  0  0
  5  6  1  0  0  0
  6  7  1  0  0  0
  7  8  1  0  0  0
  8 25  1  0  0  0
 25 26  1  0  0  0
 26 27  1  0  0  0
 27 28  1  0  0  0
  4  9  1  0  0  0
  9 10  2  0  0  0
  9 11  1  0  0  0
 11 12  1  0  0  0
 12 13  1  0  0  0
 13 14  2  0  0  0
 14 15  1  0  0  0
 15 16  1  0  0  0
 15 17  1  0  0  0
 20 21  1  0  0  0
 11  1  2  0  0  0
 17 12  2  0  0  0
  8  3  1  0  0  0
 23 24  1  0  0  0
 18 19  1  0  0  0
M  END
> <minimizedAffinity>
-6.64557

> <CNNscore>
0.1902391016

> <CNNaffinity>
5.7353544235

> <CNN_VS>
1.0910886526

> <CNNaffinity_variance>
0.1956769377

$$$$
[H]OC([H])([H])C([H])(N([H])c1nc2n(c(=O)c1-c1nn(C([H])([H])[H])c([H])c1[H])C([H])([H])C([H])([H])OC2([H])C([H])([H])C([H])([H])OC([H])([H])[H])C([H])([H])[H]


 28 30  0  0  0  0  0  0  0  0999 V2000
  -88.5628   31.9027   -1.0043 C   0  0  0  0  0  0  0  0  0  0  0  0
  -89.3530   32.5724   -1.8587 N   0  0  0  0  0  0  0  0  0  0  0  0
  -88.8931   33.5423   -2.6721 C   0  0  0  0  0  0  0  0  0  0  0  0
  -87.5918   33.8468   -2.6217 N   0  0  0  0  0  0  0  0  0  0  0  0
  -87.1030   34.8895   -3.4905 C   0  0  0  0  0  0  0  0  0  0  0  0
  -88.1612   35.9717   -3.4868 C   0  0  0  0  0  0  0  0  0  0  0  0
  -89.3833   35.5452   -3.9065 O   0  0  0  0  0  0  0  0  0  0  0  0
  -89.7646   34.2759   -3.6164 C   0  0  0  0  0  0  0  0  0  0  0  0
  -86.7696   33.2072   -1.7880 C   0  0  0  0  0  0  0  0  0  0  0  0
  -85.5556   33.5109   -1.7600 O   0  0  0  0  0  0  0  0  0  0  0  0
  -87.2128   32.2043   -0.9384 C   0  0  0  0  0  0  0  0  0  0  0  0
  -86.3445   31.4983   -0.0286 C   0  0  0  0  0  0  0  0  0  0  0  0
  -85.3662   32.0112    0.7729 C   0  0  0  0  0  0  0  0  0  0  0  0
  -84.8246   30.9363    1.4489 C   0  0  0  0  0  0  0  0  0  0  0  0
  -85.4572   29.8131    1.0658 N   0  0  0  0  0  0  0  0  0  0  0  0
  -85.1888   28.4503    1.5425 C   0  0  0  0  0  0  0  0  0  0  0  0
  -86.3552   30.1725    0.1882 N   0  0  0  0  0  0  0  0  0  0  0  0
  -89.1517   30.8978   -0.1970 N   0  0  0  0  0  0  0  0  0  0  0  0
  -88.8704   30.8960    0.8298 H   0  0  0  0  0  0  0  0  0  0  0  0
  -90.0709   29.9291   -0.6954 C   0  0  0  0  0  0  0  0  0  0  0  0
  -89.3015   28.8903   -1.5104 C   0  0  0  0  0  0  0  0  0  0  0  0
  -90.8450   29.1774    0.3420 C   0  0  0  0  0  0  0  0  0  0  0  0
  -92.1453   28.9561   -0.1146 O   0  0  0  0  0  0  0  0  0  0  0  0
  -92.5337   28.1493    0.3332 H   0  0  0  0  0  0  0  0  0  0  0  0
  -89.9057   33.3792   -4.8384 C   0  0  0  0  0  0  0  0  0  0  0  0
  -90.1402   34.1157   -6.1096 C   0  0  0  0  0  0  0  0  0  0  0  0
  -91.3275   33.8868   -6.7452 O   0  0  0  0  0  0  0  0  0  0  0  0
  -91.3366   34.2403   -8.0718 C   0  0  0  0  0  0  0  0  0  0  0  0
 20 22  1  0  0  0
 22 23  1  0  0  0
 20 18  1  0  0  0
 18  1  1  0  0  0
  1  2  1  0  0  0
  2  3  2  0  0  0
  3  4  1  0  0  0
  4  5  1  0  0  0
  5  6  1  0  0  0
  6  7  1  0  0  0
  7  8  1  0  0  0
  8 25  1  0  0  0
 25 26  1  0  0  0
 26 27  1  0  0  0
 27 28  1  0  0  0
  4  9  1  0  0  0
  9 10  2  0  0  0
  9 11  1  0  0  0
 11 12  1  0  0  0
 12 13  1  0  0  0
 13 14  2  0  0  0
 14 15  1  0  0  0
 15 16  1  0  0  0
 15 17  1  0  0  0
 20 21  1  0  0  0
 11  1  2  0  0  0
 17 12  2  0  0  0
  8  3  1  0  0  0
 23 24  1  0  0  0
 18 19  1  0  0  0
M  END
> <minimizedAffinity>
-6.25328

> <CNNscore>
0.1826138198

> <CNNaffinity>
5.4575819969

> <CNN_VS>
0.9966298938

> <CNNaffinity_variance>
0.1685341150

$$$$
[H]OC([H])([H])C([H])(N([H])c1nc2n(c(=O)c1-c1nn(C([H])([H])[H])c([H])c1[H])C([H])([H])C([H])([H])OC2([H])C([H])([H])C([H])([H])OC([H])([H])[H])C([H])([H])[H]


 28 30  0  0  0  0  0  0  0  0999 V2000
  -87.6661   30.9575   -1.4387 C   0  0  0  0  0  0  0  0  0  0  0  0
  -86.7828   30.3380   -0.6395 N   0  0  0  0  0  0  0  0  0  0  0  0
  -85.6488   30.9245   -0.2107 C   0  0  0  0  0  0  0  0  0  0  0  0
  -85.3975   32.1785   -0.6016 N   0  0  0  0  0  0  0  0  0  0  0  0
  -84.1796   32.8024   -0.1448 C   0  0  0  0  0  0  0  0  0  0  0  0
  -83.1097   31.7335   -0.2068 C   0  0  0  0  0  0  0  0  0  0  0  0
  -83.3867   30.6358    0.5481 O   0  0  0  0  0  0  0  0  0  0  0  0
  -84.6788   30.2417    0.6739 C   0  0  0  0  0  0  0  0  0  0  0  0
  -86.2472   32.8326   -1.3955 C   0  0  0  0  0  0  0  0  0  0  0  0
  -85.9890   34.0059   -1.7472 O   0  0  0  0  0  0  0  0  0  0  0  0
  -87.4227   32.2561   -1.8535 C   0  0  0  0  0  0  0  0  0  0  0  0
  -88.3571   32.9419   -2.7118 C   0  0  0  0  0  0  0  0  0  0  0  0
  -89.0855   34.0636   -2.4401 C   0  0  0  0  0  0  0  0  0  0  0  0
  -89.8257   34.3222   -3.5763 C   0  0  0  0  0  0  0  0  0  0  0  0
  -89.5509   33.3857   -4.5015 N   0  0  0  0  0  0  0  0  0  0  0  0
  -90.1236   33.2922   -5.8505 C   0  0  0  0  0  0  0  0  0  0  0  0
  -88.6765   32.5775   -3.9648 N   0  0  0  0  0  0  0  0  0  0  0  0
  -88.8294   30.2471   -1.8265 N   0  0  0  0  0  0  0  0  0  0  0  0
  -88.7342   29.6230   -2.6838 H   0  0  0  0  0  0  0  0  0  0  0  0
  -90.0719   30.3377   -1.1339 C   0  0  0  0  0  0  0  0  0  0  0  0
  -91.1893   30.5692   -2.1504 C   0  0  0  0  0  0  0  0  0  0  0  0
  -90.4573   29.1316   -0.3354 C   0  0  0  0  0  0  0  0  0  0  0  0
  -91.8206   29.1831   -0.0401 O   0  0  0  0  0  0  0  0  0  0  0  0
  -92.1742   28.2587    0.1110 H   0  0  0  0  0  0  0  0  0  0  0  0
  -85.2315   30.3792    2.0857 C   0  0  0  0  0  0  0  0  0  0  0  0
  -85.4572   29.0826    2.7795 C   0  0  0  0  0  0  0  0  0  0  0  0
  -84.3938   28.5486    3.4505 O   0  0  0  0  0  0  0  0  0  0  0  0
  -83.6264   27.6900    2.7032 C   0  0  0  0  0  0  0  0  0  0  0  0
 20 22  1  0  0  0
 22 23  1  0  0  0
 20 18  1  0  0  0
 18  1  1  0  0  0
  1  2  1  0  0  0
  2  3  2  0  0  0
  3  4  1  0  0  0
  4  5  1  0  0  0
  5  6  1  0  0  0
  6  7  1  0  0  0
  7  8  1  0  0  0
  8 25  1  0  0  0
 25 26  1  0  0  0
 26 27  1  0  0  0
 27 28  1  0  0  0
  4  9  1  0  0  0
  9 10  2  0  0  0
  9 11  1  0  0  0
 11 12  1  0  0  0
 12 13  1  0  0  0
 13 14  2  0  0  0
 14 15  1  0  0  0
 15 16  1  0  0  0
 15 17  1  0  0  0
 20 21  1  0  0  0
 11  1  2  0  0  0
 17 12  2  0  0  0
  8  3  1  0  0  0
 23 24  1  0  0  0
 18 19  1  0  0  0
M  END
> <minimizedAffinity>
-6.17429

> <CNNscore>
0.1658026129

> <CNNaffinity>
5.6838769913

> <CNN_VS>
0.9424016476

> <CNNaffinity_variance>
0.0770417824

$$$$
[H]OC([H])([H])C([H])(N([H])c1nc2n(c(=O)c1-c1nn(C([H])([H])[H])c([H])c1[H])C([H])([H])C([H])([H])OC2([H])C([H])([H])C([H])([H])OC([H])([H])[H])C([H])([H])[H]


 28 30  0  0  0  0  0  0  0  0999 V2000
  -87.4992   29.2681   -1.6455 C   0  0  0  0  0  0  0  0  0  0  0  0
  -86.4237   29.0212   -0.8805 N   0  0  0  0  0  0  0  0  0  0  0  0
  -85.7468   29.9914   -0.2366 C   0  0  0  0  0  0  0  0  0  0  0  0
  -86.1693   31.2533   -0.3693 N   0  0  0  0  0  0  0  0  0  0  0  0
  -85.4394   32.2909    0.3176 C   0  0  0  0  0  0  0  0  0  0  0  0
  -83.9741   31.9370    0.1797 C   0  0  0  0  0  0  0  0  0  0  0  0
  -83.6535   30.7186    0.6935 O   0  0  0  0  0  0  0  0  0  0  0  0
  -84.5646   29.7168    0.6098 C   0  0  0  0  0  0  0  0  0  0  0  0
  -87.2335   31.5449   -1.1193 C   0  0  0  0  0  0  0  0  0  0  0  0
  -87.6090   32.7342   -1.2271 O   0  0  0  0  0  0  0  0  0  0  0  0
  -87.9512   30.5686   -1.7943 C   0  0  0  0  0  0  0  0  0  0  0  0
  -89.1044   30.8580   -2.6107 C   0  0  0  0  0  0  0  0  0  0  0  0
  -89.1346   31.2876   -3.9058 C   0  0  0  0  0  0  0  0  0  0  0  0
  -90.4694   31.4179   -4.2332 C   0  0  0  0  0  0  0  0  0  0  0  0
  -91.2175   31.0776   -3.1688 N   0  0  0  0  0  0  0  0  0  0  0  0
  -92.6840   31.0766   -3.0930 C   0  0  0  0  0  0  0  0  0  0  0  0
  -90.3845   30.7489   -2.2181 N   0  0  0  0  0  0  0  0  0  0  0  0
  -88.1381   28.1706   -2.2744 N   0  0  0  0  0  0  0  0  0  0  0  0
  -87.8293   27.9554   -3.2702 H   0  0  0  0  0  0  0  0  0  0  0  0
  -89.1400   27.3780   -1.6421 C   0  0  0  0  0  0  0  0  0  0  0  0
  -90.2169   27.0302   -2.6691 C   0  0  0  0  0  0  0  0  0  0  0  0
  -88.6677   26.0840   -1.0563 C   0  0  0  0  0  0  0  0  0  0  0  0
  -87.3227   25.8902   -1.3753 O   0  0  0  0  0  0  0  0  0  0  0  0
  -86.8909   25.2955   -0.6955 H   0  0  0  0  0  0  0  0  0  0  0  0
  -85.1106   29.2648    1.9570 C   0  0  0  0  0  0  0  0  0  0  0  0
  -84.3891   28.1055    2.5478 C   0  0  0  0  0  0  0  0  0  0  0  0
  -84.8153   26.8609    2.1798 O   0  0  0  0  0  0  0  0  0  0  0  0
  -86.1635   26.7734    1.9363 C   0  0  0  0  0  0  0  0  0  0  0  0
 20 22  1  0  0  0
 22 23  1  0  0  0
 20 18  1  0  0  0
 18  1  1  0  0  0
  1  2  1  0  0  0
  2  3  2  0  0  0
  3  4  1  0  0  0
  4  5  1  0  0  0
  5  6  1  0  0  0
  6  7  1  0  0  0
  7  8  1  0  0  0
  8 25  1  0  0  0
 25 26  1  0  0  0
 26 27  1  0  0  0
 27 28  1  0  0  0
  4  9  1  0  0  0
  9 10  2  0  0  0
  9 11  1  0  0  0
 11 12  1  0  0  0
 12 13  1  0  0  0
 13 14  2  0  0  0
 14 15  1  0  0  0
 15 16  1  0  0  0
 15 17  1  0  0  0
 20 21  1  0  0  0
 11  1  2  0  0  0
 17 12  2  0  0  0
  8  3  1  0  0  0
 23 24  1  0  0  0
 18 19  1  0  0  0
M  END
> <minimizedAffinity>
-6.92489

> <CNNscore>
0.1425808817

> <CNNaffinity>
5.4624772072

> <CNN_VS>
0.7788448334

> <CNNaffinity_variance>
0.2834888101

$$$$
[H]c1nc([H])c(C2([H])c3c(OC([H])([H])[H])c([H])c(-c4c([H])nc([H])c([N+](=O)[O-])c4[H])c([H])c3C(=O)N2c2c([H])c([H])c(N(c3c([H])nc(OC([H])([H])[H])c([H])c3[H])C([H])([H])[H])c([H])c2[H])c([H])c1[H]


 43 48  0  0  0  0  0  0  0  0999 V2000
  -88.1124   31.4753   -0.6344 C   0  0  0  0  0  0  0  0  0  0  0  0
  -88.6305   30.3203   -1.1988 C   0  0  0  0  0  0  0  0  0  0  0  0
  -87.9417   29.1289   -1.1771 C   0  0  0  0  0  0  0  0  0  0  0  0
  -86.6801   29.0774   -0.5756 C   0  0  0  0  0  0  0  0  0  0  0  0
  -86.1491   30.2236   -0.0089 C   0  0  0  0  0  0  0  0  0  0  0  0
  -86.8618   31.4013   -0.0422 C   0  0  0  0  0  0  0  0  0  0  0  0
  -88.7723   28.0976   -1.7728 C   0  0  0  0  0  0  0  0  0  0  0  0
  -88.5008   26.8825   -1.9433 O   0  0  0  0  0  0  0  0  0  0  0  0
  -90.0050   28.6880   -2.1566 N   0  0  0  0  0  0  0  0  0  0  0  0
  -89.8797   30.1039   -1.9475 C   0  0  0  0  0  0  0  0  0  0  0  0
  -84.8338   30.1130    0.6021 C   0  0  0  0  0  0  0  0  0  0  0  0
  -84.4723   28.9836    1.2910 C   0  0  0  0  0  0  0  0  0  0  0  0
  -83.2516   28.8842    1.8844 C   0  0  0  0  0  0  0  0  0  0  0  0
  -82.3507   29.9523    1.7900 C   0  0  0  0  0  0  0  0  0  0  0  0
  -82.7142   31.0463    1.1161 N   0  0  0  0  0  0  0  0  0  0  0  0
  -83.9027   31.1486    0.5353 C   0  0  0  0  0  0  0  0  0  0  0  0
  -82.8538   27.7234    2.6000 N   0  0  0  0  0  0  0  0  0  0  0  0
  -81.6625   27.3887    2.5941 O   0  0  0  0  0  0  0  0  0  0  0  0
  -83.7875   26.9701    3.3009 O   0  0  0  0  0  0  0  0  0  0  0  0
  -91.1758   28.0277   -2.6468 C   0  0  0  0  0  0  0  0  0  0  0  0
  -92.4046   28.4625   -2.1660 C   0  0  0  0  0  0  0  0  0  0  0  0
  -93.5930   27.9051   -2.5212 C   0  0  0  0  0  0  0  0  0  0  0  0
  -93.5961   26.8396   -3.4167 C   0  0  0  0  0  0  0  0  0  0  0  0
  -92.3622   26.4085   -3.8994 C   0  0  0  0  0  0  0  0  0  0  0  0
  -91.1609   26.9775   -3.5350 C   0  0  0  0  0  0  0  0  0  0  0  0
  -94.8053   26.2331   -3.7319 N   0  0  0  0  0  0  0  0  0  0  0  0
  -95.9254   26.4542   -2.7921 C   0  0  0  0  0  0  0  0  0  0  0  0
  -95.1427   25.4260   -4.8486 C   0  0  0  0  0  0  0  0  0  0  0  0
  -95.4090   26.0597   -6.0712 C   0  0  0  0  0  0  0  0  0  0  0  0
  -95.6799   25.2580   -7.1463 C   0  0  0  0  0  0  0  0  0  0  0  0
  -95.7085   23.8748   -7.1088 C   0  0  0  0  0  0  0  0  0  0  0  0
  -95.4396   23.3097   -5.8704 N   0  0  0  0  0  0  0  0  0  0  0  0
  -95.1725   24.0759   -4.8056 C   0  0  0  0  0  0  0  0  0  0  0  0
  -95.9532   23.0775   -8.0917 O   0  0  0  0  0  0  0  0  0  0  0  0
  -96.2270   22.2184   -9.0202 C   0  0  0  0  0  0  0  0  0  0  0  0
  -89.8095   30.8139   -3.2854 C   0  0  0  0  0  0  0  0  0  0  0  0
  -88.7114   30.6212   -4.1012 C   0  0  0  0  0  0  0  0  0  0  0  0
  -88.6664   31.2627   -5.2803 N   0  0  0  0  0  0  0  0  0  0  0  0
  -89.6579   32.0881   -5.6917 C   0  0  0  0  0  0  0  0  0  0  0  0
  -90.7811   32.3036   -4.8886 C   0  0  0  0  0  0  0  0  0  0  0  0
  -90.8375   31.6506   -3.6783 C   0  0  0  0  0  0  0  0  0  0  0  0
  -88.5489   33.6512   -1.6692 C   0  0  0  0  0  0  0  0  0  0  0  0
  -88.7945   32.6995   -0.6389 O   0  0  0  0  0  0  0  0  0  0  0  0
 42 43  1  0  0  0
 43  1  1  0  0  0
  1  2  2  0  0  0
  2  3  1  0  0  0
  3  4  2  0  0  0
  4  5  1  0  0  0
  5 11  1  0  0  0
 11 12  2  0  0  0
 12 13  1  0  0  0
 13 17  1  0  0  0
 17 18  2  0  0  0
 17 19  1  0  0  0
 13 14  2  0  0  0
 14 15  1  0  0  0
 15 16  2  0  0  0
  5  6  2  0  0  0
  3  7  1  0  0  0
  7  8  2  0  0  0
  7  9  1  0  0  0
  9 20  1  0  0  0
 20 21  2  0  0  0
 21 22  1  0  0  0
 22 23  2  0  0  0
 23 26  1  0  0  0
 26 28  1  0  0  0
 28 29  2  0  0  0
 29 30  1  0  0  0
 30 31  2  0  0  0
 31 34  1  0  0  0
 34 35  1  0  0  0
 31 32  1  0  0  0
 32 33  2  0  0  0
 26 27  1  0  0  0
 23 24  1  0  0  0
 24 25  2  0  0  0
  9 10  1  0  0  0
 10 36  1  0  0  0
 36 37  2  0  0  0
 37 38  1  0  0  0
 38 39  2  0  0  0
 39 40  1  0  0  0
 40 41  2  0  0  0
  6  1  1  0  0  0
 25 20  1  0  0  0
 41 36  1  0  0  0
 10  2  1  0  0  0
 16 11  1  0  0  0
 33 28  1  0  0  0
M  CHG 1  17   1
M  CHG 1  19  -1
M  END
> <minimizedAffinity>
-7.97340

> <CNNscore>
0.0890736282

> <CNNaffinity>
6.6993989944

> <CNN_VS>
0.5967397690

> <CNNaffinity_variance>
0.1043293923

$$$$
[H]c1nc([H])c(C2([H])c3c(OC([H])([H])[H])c([H])c(-c4c([H])nc([H])c([N+](=O)[O-])c4[H])c([H])c3C(=O)N2c2c([H])c([H])c(N(c3c([H])nc(OC([H])([H])[H])c([H])c3[H])C([H])([H])[H])c([H])c2[H])c([H])c1[H]


 43 48  0  0  0  0  0  0  0  0999 V2000
  -94.0540   27.1426   -6.4441 C   0  0  0  0  0  0  0  0  0  0  0  0
  -93.3808   27.6510   -5.3445 C   0  0  0  0  0  0  0  0  0  0  0  0
  -93.1562   26.8948   -4.2166 C   0  0  0  0  0  0  0  0  0  0  0  0
  -93.6238   25.5775   -4.1702 C   0  0  0  0  0  0  0  0  0  0  0  0
  -94.2994   25.0565   -5.2606 C   0  0  0  0  0  0  0  0  0  0  0  0
  -94.5071   25.8347   -6.3775 C   0  0  0  0  0  0  0  0  0  0  0  0
  -92.3662   27.6745   -3.2805 C   0  0  0  0  0  0  0  0  0  0  0  0
  -91.9610   27.3412   -2.1385 O   0  0  0  0  0  0  0  0  0  0  0  0
  -92.0995   28.9380   -3.8703 N   0  0  0  0  0  0  0  0  0  0  0  0
  -92.8511   29.0017   -5.0931 C   0  0  0  0  0  0  0  0  0  0  0  0
  -94.7639   23.6820   -5.1578 C   0  0  0  0  0  0  0  0  0  0  0  0
  -94.3680   22.8831   -4.1159 C   0  0  0  0  0  0  0  0  0  0  0  0
  -94.7810   21.5893   -4.0274 C   0  0  0  0  0  0  0  0  0  0  0  0
  -95.6236   21.0660   -5.0161 C   0  0  0  0  0  0  0  0  0  0  0  0
  -96.0026   21.8541   -6.0253 N   0  0  0  0  0  0  0  0  0  0  0  0
  -95.6033   23.1161   -6.1165 C   0  0  0  0  0  0  0  0  0  0  0  0
  -94.3869   20.7441   -2.9560 N   0  0  0  0  0  0  0  0  0  0  0  0
  -95.0308   19.7111   -2.7330 O   0  0  0  0  0  0  0  0  0  0  0  0
  -93.2911   21.0683   -2.1656 O   0  0  0  0  0  0  0  0  0  0  0  0
  -91.2389   29.9692   -3.3772 C   0  0  0  0  0  0  0  0  0  0  0  0
  -90.3061   30.5006   -4.2591 C   0  0  0  0  0  0  0  0  0  0  0  0
  -89.4064   31.4608   -3.9163 C   0  0  0  0  0  0  0  0  0  0  0  0
  -89.4078   31.9505   -2.6134 C   0  0  0  0  0  0  0  0  0  0  0  0
  -90.3470   31.4178   -1.7328 C   0  0  0  0  0  0  0  0  0  0  0  0
  -91.2561   30.4441   -2.0864 C   0  0  0  0  0  0  0  0  0  0  0  0
  -88.4494   32.8875   -2.2491 N   0  0  0  0  0  0  0  0  0  0  0  0
  -88.7035   34.2887   -2.6478 C   0  0  0  0  0  0  0  0  0  0  0  0
  -87.2428   32.7056   -1.5258 C   0  0  0  0  0  0  0  0  0  0  0  0
  -87.1163   31.5652   -0.7190 C   0  0  0  0  0  0  0  0  0  0  0  0
  -85.9239   31.3840   -0.0730 C   0  0  0  0  0  0  0  0  0  0  0  0
  -84.8426   32.2435   -0.1617 C   0  0  0  0  0  0  0  0  0  0  0  0
  -85.0324   33.3533   -0.9727 N   0  0  0  0  0  0  0  0  0  0  0  0
  -86.1914   33.5497   -1.6133 C   0  0  0  0  0  0  0  0  0  0  0  0
  -83.7003   32.1150    0.4217 O   0  0  0  0  0  0  0  0  0  0  0  0
  -82.5313   31.9287    0.9451 C   0  0  0  0  0  0  0  0  0  0  0  0
  -93.9953   29.9846   -4.9392 C   0  0  0  0  0  0  0  0  0  0  0  0
  -94.0694   31.0794   -5.7785 C   0  0  0  0  0  0  0  0  0  0  0  0
  -95.0884   31.9405   -5.6229 N   0  0  0  0  0  0  0  0  0  0  0  0
  -96.0395   31.7702   -4.6743 C   0  0  0  0  0  0  0  0  0  0  0  0
  -95.9916   30.6729   -3.8102 C   0  0  0  0  0  0  0  0  0  0  0  0
  -94.9518   29.7840   -3.9612 C   0  0  0  0  0  0  0  0  0  0  0  0
  -95.6073   28.3441   -7.9069 C   0  0  0  0  0  0  0  0  0  0  0  0
  -94.2920   27.8893   -7.6059 O   0  0  0  0  0  0  0  0  0  0  0  0
 42 43  1  0  0  0
 43  1  1  0  0  0
  1  2  2  0  0  0
  2  3  1  0  0  0
  3  4  2  0  0  0
  4  5  1  0  0  0
  5 11  1  0  0  0
 11 12  2  0  0  0
 12 13  1  0  0  0
 13 17  1  0  0  0
 17 18  2  0  0  0
 17 19  1  0  0  0
 13 14  2  0  0  0
 14 15  1  0  0  0
 15 16  2  0  0  0
  5  6  2  0  0  0
  3  7  1  0  0  0
  7  8  2  0  0  0
  7  9  1  0  0  0
  9 20  1  0  0  0
 20 21  2  0  0  0
 21 22  1  0  0  0
 22 23  2  0  0  0
 23 26  1  0  0  0
 26 28  1  0  0  0
 28 29  2  0  0  0
 29 30  1  0  0  0
 30 31  2  0  0  0
 31 34  1  0  0  0
 34 35  1  0  0  0
 31 32  1  0  0  0
 32 33  2  0  0  0
 26 27  1  0  0  0
 23 24  1  0  0  0
 24 25  2  0  0  0
  9 10  1  0  0  0
 10 36  1  0  0  0
 36 37  2  0  0  0
 37 38  1  0  0  0
 38 39  2  0  0  0
 39 40  1  0  0  0
 40 41  2  0  0  0
  6  1  1  0  0  0
 25 20  1  0  0  0
 41 36  1  0  0  0
 10  2  1  0  0  0
 16 11  1  0  0  0
 33 28  1  0  0  0
M  CHG 1  17   1
M  CHG 1  19  -1
M  END
> <minimizedAffinity>
-6.89672

> <CNNscore>
0.0693483278

> <CNNaffinity>
6.2625913620

> <CNN_VS>
0.4343002439

> <CNNaffinity_variance>
0.0732954592

$$$$
[H]c1nc([H])c(C2([H])c3c(OC([H])([H])[H])c([H])c(-c4c([H])nc([H])c([N+](=O)[O-])c4[H])c([H])c3C(=O)N2c2c([H])c([H])c(N(c3c([H])nc(OC([H])([H])[H])c([H])c3[H])C([H])([H])[H])c([H])c2[H])c([H])c1[H]


 43 48  0  0  0  0  0  0  0  0999 V2000
  -95.5219   28.0044   -6.3558 C   0  0  0  0  0  0  0  0  0  0  0  0
  -94.3706   28.1885   -5.6063 C   0  0  0  0  0  0  0  0  0  0  0  0
  -93.5902   27.1296   -5.2012 C   0  0  0  0  0  0  0  0  0  0  0  0
  -93.9679   25.8281   -5.5470 C   0  0  0  0  0  0  0  0  0  0  0  0
  -95.1163   25.6286   -6.2940 C   0  0  0  0  0  0  0  0  0  0  0  0
  -95.8765   26.7068   -6.6887 C   0  0  0  0  0  0  0  0  0  0  0  0
  -92.4244   27.6465   -4.5069 C   0  0  0  0  0  0  0  0  0  0  0  0
  -91.4816   27.0014   -3.9832 O   0  0  0  0  0  0  0  0  0  0  0  0
  -92.5030   29.0640   -4.5033 N   0  0  0  0  0  0  0  0  0  0  0  0
  -93.7839   29.4186   -5.0489 C   0  0  0  0  0  0  0  0  0  0  0  0
  -95.4620   24.2549   -6.6245 C   0  0  0  0  0  0  0  0  0  0  0  0
  -95.9669   23.9354   -7.8588 C   0  0  0  0  0  0  0  0  0  0  0  0
  -96.3136   22.6556   -8.1653 C   0  0  0  0  0  0  0  0  0  0  0  0
  -96.1523   21.6493   -7.2047 C   0  0  0  0  0  0  0  0  0  0  0  0
  -95.6592   21.9729   -6.0067 N   0  0  0  0  0  0  0  0  0  0  0  0
  -95.3191   23.2188   -5.7025 C   0  0  0  0  0  0  0  0  0  0  0  0
  -96.8352   22.3003   -9.4379 N   0  0  0  0  0  0  0  0  0  0  0  0
  -96.5591   21.1930   -9.9163 O   0  0  0  0  0  0  0  0  0  0  0  0
  -97.6474   23.1819  -10.1406 O   0  0  0  0  0  0  0  0  0  0  0  0
  -91.5086   29.9939   -4.0631 C   0  0  0  0  0  0  0  0  0  0  0  0
  -91.3075   30.1155   -2.6938 C   0  0  0  0  0  0  0  0  0  0  0  0
  -90.4197   30.9816   -2.1364 C   0  0  0  0  0  0  0  0  0  0  0  0
  -89.6612   31.7980   -2.9704 C   0  0  0  0  0  0  0  0  0  0  0  0
  -89.8631   31.6707   -4.3431 C   0  0  0  0  0  0  0  0  0  0  0  0
  -90.7650   30.7911   -4.9019 C   0  0  0  0  0  0  0  0  0  0  0  0
  -88.7986   32.7237   -2.3974 N   0  0  0  0  0  0  0  0  0  0  0  0
  -89.1048   34.1516   -2.6307 C   0  0  0  0  0  0  0  0  0  0  0  0
  -87.6500   32.5060   -1.5939 C   0  0  0  0  0  0  0  0  0  0  0  0
  -86.7339   33.5575   -1.4440 C   0  0  0  0  0  0  0  0  0  0  0  0
  -85.6617   33.3417   -0.6220 C   0  0  0  0  0  0  0  0  0  0  0  0
  -85.4222   32.1649    0.0661 C   0  0  0  0  0  0  0  0  0  0  0  0
  -86.3632   31.1635   -0.1267 N   0  0  0  0  0  0  0  0  0  0  0  0
  -87.4193   31.3538   -0.9270 C   0  0  0  0  0  0  0  0  0  0  0  0
  -84.4326   31.9149    0.8534 O   0  0  0  0  0  0  0  0  0  0  0  0
  -83.4966   31.6322    1.7014 C   0  0  0  0  0  0  0  0  0  0  0  0
  -94.6747   29.9634   -3.9495 C   0  0  0  0  0  0  0  0  0  0  0  0
  -95.0752   31.2849   -3.9904 C   0  0  0  0  0  0  0  0  0  0  0  0
  -95.8606   31.7491   -3.0047 N   0  0  0  0  0  0  0  0  0  0  0  0
  -96.2694   30.9667   -1.9779 C   0  0  0  0  0  0  0  0  0  0  0  0
  -95.8806   29.6261   -1.9086 C   0  0  0  0  0  0  0  0  0  0  0  0
  -95.0760   29.1401   -2.9139 C   0  0  0  0  0  0  0  0  0  0  0  0
  -97.5688   29.3295   -6.1316 C   0  0  0  0  0  0  0  0  0  0  0  0
  -96.3314   29.0649   -6.7846 O   0  0  0  0  0  0  0  0  0  0  0  0
 42 43  1  0  0  0
 43  1  1  0  0  0
  1  2  2  0  0  0
  2  3  1  0  0  0
  3  4  2  0  0  0
  4  5  1  0  0  0
  5 11  1  0  0  0
 11 12  2  0  0  0
 12 13  1  0  0  0
 13 17  1  0  0  0
 17 18  2  0  0  0
 17 19  1  0  0  0
 13 14  2  0  0  0
 14 15  1  0  0  0
 15 16  2  0  0  0
  5  6  2  0  0  0
  3  7  1  0  0  0
  7  8  2  0  0  0
  7  9  1  0  0  0
  9 20  1  0  0  0
 20 21  2  0  0  0
 21 22  1  0  0  0
 22 23  2  0  0  0
 23 26  1  0  0  0
 26 28  1  0  0  0
 28 29  2  0  0  0
 29 30  1  0  0  0
 30 31  2  0  0  0
 31 34  1  0  0  0
 34 35  1  0  0  0
 31 32  1  0  0  0
 32 33  2  0  0  0
 26 27  1  0  0  0
 23 24  1  0  0  0
 24 25  2  0  0  0
  9 10  1  0  0  0
 10 36  1  0  0  0
 36 37  2  0  0  0
 37 38  1  0  0  0
 38 39  2  0  0  0
 39 40  1  0  0  0
 40 41  2  0  0  0
  6  1  1  0  0  0
 25 20  1  0  0  0
 41 36  1  0  0  0
 10  2  1  0  0  0
 16 11  1  0  0  0
 33 28  1  0  0  0
M  CHG 1  17   1
M  CHG 1  19  -1
M  END
> <minimizedAffinity>
-6.88181

> <CNNscore>
0.0685741529

> <CNNaffinity>
6.0641555786

> <CNN_VS>
0.4158443213

> <CNNaffinity_variance>
0.0569538102

$$$$
[H]c1nc([H])c(C2([H])c3c(OC([H])([H])[H])c([H])c(-c4c([H])nc([H])c([N+](=O)[O-])c4[H])c([H])c3C(=O)N2c2c([H])c([H])c(N(c3c([H])nc(OC([H])([H])[H])c([H])c3[H])C([H])([H])[H])c([H])c2[H])c([H])c1[H]


 43 48  0  0  0  0  0  0  0  0999 V2000
  -94.9017   29.7579   -6.5481 C   0  0  0  0  0  0  0  0  0  0  0  0
  -93.9137   29.5497   -5.5985 C   0  0  0  0  0  0  0  0  0  0  0  0
  -93.5377   28.2851   -5.2064 C   0  0  0  0  0  0  0  0  0  0  0  0
  -94.1713   27.1749   -5.7739 C   0  0  0  0  0  0  0  0  0  0  0  0
  -95.1611   27.3673   -6.7226 C   0  0  0  0  0  0  0  0  0  0  0  0
  -95.5149   28.6439   -7.0986 C   0  0  0  0  0  0  0  0  0  0  0  0
  -92.4371   28.3950   -4.2658 C   0  0  0  0  0  0  0  0  0  0  0  0
  -91.8214   27.4707   -3.6778 O   0  0  0  0  0  0  0  0  0  0  0  0
  -92.1360   29.7718   -4.0947 N   0  0  0  0  0  0  0  0  0  0  0  0
  -93.1435   30.5163   -4.7981 C   0  0  0  0  0  0  0  0  0  0  0  0
  -95.7865   26.1778   -7.2789 C   0  0  0  0  0  0  0  0  0  0  0  0
  -95.3675   24.9257   -6.9086 C   0  0  0  0  0  0  0  0  0  0  0  0
  -95.9335   23.8096   -7.4434 C   0  0  0  0  0  0  0  0  0  0  0  0
  -96.9599   23.9422   -8.3869 C   0  0  0  0  0  0  0  0  0  0  0  0
  -97.3594   25.1668   -8.7390 N   0  0  0  0  0  0  0  0  0  0  0  0
  -96.8116   26.2583   -8.2206 C   0  0  0  0  0  0  0  0  0  0  0  0
  -95.5186   22.5026   -7.0727 N   0  0  0  0  0  0  0  0  0  0  0  0
  -95.4144   22.2194   -5.8726 O   0  0  0  0  0  0  0  0  0  0  0  0
  -95.2334   21.5494   -8.0425 O   0  0  0  0  0  0  0  0  0  0  0  0
  -91.0376   30.3444   -3.3787 C   0  0  0  0  0  0  0  0  0  0  0  0
  -89.9300   30.7427   -4.1170 C   0  0  0  0  0  0  0  0  0  0  0  0
  -88.8059   31.2714   -3.5639 C   0  0  0  0  0  0  0  0  0  0  0  0
  -88.7460   31.4305   -2.1824 C   0  0  0  0  0  0  0  0  0  0  0  0
  -89.8598   31.0333   -1.4456 C   0  0  0  0  0  0  0  0  0  0  0  0
  -90.9962   30.4975   -2.0124 C   0  0  0  0  0  0  0  0  0  0  0  0
  -87.5746   31.9147   -1.6142 N   0  0  0  0  0  0  0  0  0  0  0  0
  -87.2302   33.3243   -1.8991 C   0  0  0  0  0  0  0  0  0  0  0  0
  -86.6428   31.2540   -0.7731 C   0  0  0  0  0  0  0  0  0  0  0  0
  -86.6316   29.8514   -0.7653 C   0  0  0  0  0  0  0  0  0  0  0  0
  -85.6891   29.2368    0.0130 C   0  0  0  0  0  0  0  0  0  0  0  0
  -84.7534   29.9009    0.7870 C   0  0  0  0  0  0  0  0  0  0  0  0
  -84.8190   31.2860    0.7380 N   0  0  0  0  0  0  0  0  0  0  0  0
  -85.7336   31.9073   -0.0168 C   0  0  0  0  0  0  0  0  0  0  0  0
  -83.8451   29.3692    1.5313 O   0  0  0  0  0  0  0  0  0  0  0  0
  -82.8847   28.8243    2.2066 C   0  0  0  0  0  0  0  0  0  0  0  0
  -94.0564   31.2068   -3.8037 C   0  0  0  0  0  0  0  0  0  0  0  0
  -94.2399   32.5737   -3.8839 C   0  0  0  0  0  0  0  0  0  0  0  0
  -95.0491   33.1669   -2.9909 N   0  0  0  0  0  0  0  0  0  0  0  0
  -95.6865   32.4709   -2.0200 C   0  0  0  0  0  0  0  0  0  0  0  0
  -95.5206   31.0874   -1.9129 C   0  0  0  0  0  0  0  0  0  0  0  0
  -94.6938   30.4694   -2.8232 C   0  0  0  0  0  0  0  0  0  0  0  0
  -96.6079   31.5103   -6.6670 C   0  0  0  0  0  0  0  0  0  0  0  0
  -95.3001   31.0342   -6.9681 O   0  0  0  0  0  0  0  0  0  0  0  0
 42 43  1  0  0  0
 43  1  1  0  0  0
  1  2  2  0  0  0
  2  3  1  0  0  0
  3  4  2  0  0  0
  4  5  1  0  0  0
  5 11  1  0  0  0
 11 12  2  0  0  0
 12 13  1  0  0  0
 13 17  1  0  0  0
 17 18  2  0  0  0
 17 19  1  0  0  0
 13 14  2  0  0  0
 14 15  1  0  0  0
 15 16  2  0  0  0
  5  6  2  0  0  0
  3  7  1  0  0  0
  7  8  2  0  0  0
  7  9  1  0  0  0
  9 20  1  0  0  0
 20 21  2  0  0  0
 21 22  1  0  0  0
 22 23  2  0  0  0
 23 26  1  0  0  0
 26 28  1  0  0  0
 28 29  2  0  0  0
 29 30  1  0  0  0
 30 31  2  0  0  0
 31 34  1  0  0  0
 34 35  1  0  0  0
 31 32  1  0  0  0
 32 33  2  0  0  0
 26 27  1  0  0  0
 23 24  1  0  0  0
 24 25  2  0  0  0
  9 10  1  0  0  0
 10 36  1  0  0  0
 36 37  2  0  0  0
 37 38  1  0  0  0
 38 39  2  0  0  0
 39 40  1  0  0  0
 40 41  2  0  0  0
  6  1  1  0  0  0
 25 20  1  0  0  0
 41 36  1  0  0  0
 10  2  1  0  0  0
 16 11  1  0  0  0
 33 28  1  0  0  0
M  CHG 1  17   1
M  CHG 1  19  -1
M  END
> <minimizedAffinity>
-7.17530

> <CNNscore>
0.0617492199

> <CNNaffinity>
6.1492609978

> <CNN_VS>
0.3797120750

> <CNNaffinity_variance>
0.0520621128

$$$$
[H]c1nc([H])c(C2([H])c3c(OC([H])([H])[H])c([H])c(-c4c([H])nc([H])c([N+](=O)[O-])c4[H])c([H])c3C(=O)N2c2c([H])c([H])c(N(c3c([H])nc(OC([H])([H])[H])c([H])c3[H])C([H])([H])[H])c([H])c2[H])c([H])c1[H]


 43 48  0  0  0  0  0  0  0  0999 V2000
  -86.5003   28.0427    1.5161 C   0  0  0  0  0  0  0  0  0  0  0  0
  -87.7059   27.5757    1.0169 C   0  0  0  0  0  0  0  0  0  0  0  0
  -88.4477   28.3012    0.1126 C   0  0  0  0  0  0  0  0  0  0  0  0
  -87.9801   29.5485   -0.3135 C   0  0  0  0  0  0  0  0  0  0  0  0
  -86.7781   30.0287    0.1777 C   0  0  0  0  0  0  0  0  0  0  0  0
  -86.0549   29.2801    1.0792 C   0  0  0  0  0  0  0  0  0  0  0  0
  -89.6077   27.5188   -0.2754 C   0  0  0  0  0  0  0  0  0  0  0  0
  -90.5261   27.8329   -1.0738 O   0  0  0  0  0  0  0  0  0  0  0  0
  -89.5555   26.2778    0.4122 N   0  0  0  0  0  0  0  0  0  0  0  0
  -88.4603   26.3529    1.3390 C   0  0  0  0  0  0  0  0  0  0  0  0
  -86.3401   31.3313   -0.2987 C   0  0  0  0  0  0  0  0  0  0  0  0
  -87.1263   32.0701   -1.1452 C   0  0  0  0  0  0  0  0  0  0  0  0
  -86.7112   33.2791   -1.6124 C   0  0  0  0  0  0  0  0  0  0  0  0
  -85.4613   33.7761   -1.2225 C   0  0  0  0  0  0  0  0  0  0  0  0
  -84.7052   33.0476   -0.3974 N   0  0  0  0  0  0  0  0  0  0  0  0
  -85.1049   31.8686    0.0614 C   0  0  0  0  0  0  0  0  0  0  0  0
  -87.5096   34.0636   -2.4870 N   0  0  0  0  0  0  0  0  0  0  0  0
  -86.9581   34.7468   -3.3589 O   0  0  0  0  0  0  0  0  0  0  0  0
  -88.8941   34.0658   -2.3697 O   0  0  0  0  0  0  0  0  0  0  0  0
  -90.4052   25.1411    0.2308 C   0  0  0  0  0  0  0  0  0  0  0  0
  -89.8588   24.0266   -0.3936 C   0  0  0  0  0  0  0  0  0  0  0  0
  -90.5596   22.8918   -0.6585 C   0  0  0  0  0  0  0  0  0  0  0  0
  -91.8998   22.8262   -0.2886 C   0  0  0  0  0  0  0  0  0  0  0  0
  -92.4434   23.9444    0.3404 C   0  0  0  0  0  0  0  0  0  0  0  0
  -91.7277   25.0920    0.6057 C   0  0  0  0  0  0  0  0  0  0  0  0
  -92.6295   21.6899   -0.6135 N   0  0  0  0  0  0  0  0  0  0  0  0
  -92.5604   20.5602    0.3382 C   0  0  0  0  0  0  0  0  0  0  0  0
  -93.4599   21.4449   -1.7372 C   0  0  0  0  0  0  0  0  0  0  0  0
  -93.4401   22.3681   -2.7929 C   0  0  0  0  0  0  0  0  0  0  0  0
  -94.2087   22.0836   -3.8885 C   0  0  0  0  0  0  0  0  0  0  0  0
  -94.9981   20.9547   -4.0238 C   0  0  0  0  0  0  0  0  0  0  0  0
  -94.9761   20.0831   -2.9445 N   0  0  0  0  0  0  0  0  0  0  0  0
  -94.2313   20.3428   -1.8628 C   0  0  0  0  0  0  0  0  0  0  0  0
  -95.7341   20.6402   -5.0343 O   0  0  0  0  0  0  0  0  0  0  0  0
  -96.5421   20.3250   -5.9950 C   0  0  0  0  0  0  0  0  0  0  0  0
  -88.9941   26.4336    2.7558 C   0  0  0  0  0  0  0  0  0  0  0  0
  -88.9395   25.3176    3.5682 C   0  0  0  0  0  0  0  0  0  0  0  0
  -89.4217   25.4087    4.8185 N   0  0  0  0  0  0  0  0  0  0  0  0
  -89.9569   26.5536    5.3045 C   0  0  0  0  0  0  0  0  0  0  0  0
  -90.0265   27.6991    4.5069 C   0  0  0  0  0  0  0  0  0  0  0  0
  -89.5348   27.6168    3.2240 C   0  0  0  0  0  0  0  0  0  0  0  0
  -84.3125   27.5080    2.4774 C   0  0  0  0  0  0  0  0  0  0  0  0
  -85.7237   27.3225    2.4338 O   0  0  0  0  0  0  0  0  0  0  0  0
 42 43  1  0  0  0
 43  1  1  0  0  0
  1  2  2  0  0  0
  2  3  1  0  0  0
  3  4  2  0  0  0
  4  5  1  0  0  0
  5 11  1  0  0  0
 11 12  2  0  0  0
 12 13  1  0  0  0
 13 17  1  0  0  0
 17 18  2  0  0  0
 17 19  1  0  0  0
 13 14  2  0  0  0
 14 15  1  0  0  0
 15 16  2  0  0  0
  5  6  2  0  0  0
  3  7  1  0  0  0
  7  8  2  0  0  0
  7  9  1  0  0  0
  9 20  1  0  0  0
 20 21  2  0  0  0
 21 22  1  0  0  0
 22 23  2  0  0  0
 23 26  1  0  0  0
 26 28  1  0  0  0
 28 29  2  0  0  0
 29 30  1  0  0  0
 30 31  2  0  0  0
 31 34  1  0  0  0
 34 35  1  0  0  0
 31 32  1  0  0  0
 32 33  2  0  0  0
 26 27  1  0  0  0
 23 24  1  0  0  0
 24 25  2  0  0  0
  9 10  1  0  0  0
 10 36  1  0  0  0
 36 37  2  0  0  0
 37 38  1  0  0  0
 38 39  2  0  0  0
 39 40  1  0  0  0
 40 41  2  0  0  0
  6  1  1  0  0  0
 25 20  1  0  0  0
 41 36  1  0  0  0
 10  2  1  0  0  0
 16 11  1  0  0  0
 33 28  1  0  0  0
M  CHG 1  17   1
M  CHG 1  19  -1
M  END
> <minimizedAffinity>
-8.98167

> <CNNscore>
0.0532830320

> <CNNaffinity>
6.6209435463

> <CNN_VS>
0.3527839482

> <CNNaffinity_variance>
0.2007561028

$$$$
[H]c1nc([H])c(C2([H])c3c(OC([H])([H])[H])c([H])c(-c4c([H])nc([H])c([N+](=O)[O-])c4[H])c([H])c3C(=O)N2c2c([H])c([H])c(N(c3c([H])nc(OC([H])([H])[H])c([H])c3[H])C([H])([H])[H])c([H])c2[H])c([H])c1[H]


 43 48  0  0  0  0  0  0  0  0999 V2000
  -89.9809   28.2168    0.4234 C   0  0  0  0  0  0  0  0  0  0  0  0
  -89.6979   28.9799   -0.6985 C   0  0  0  0  0  0  0  0  0  0  0  0
  -90.0284   28.5582   -1.9663 C   0  0  0  0  0  0  0  0  0  0  0  0
  -90.6621   27.3228   -2.1343 C   0  0  0  0  0  0  0  0  0  0  0  0
  -90.9497   26.5488   -1.0229 C   0  0  0  0  0  0  0  0  0  0  0  0
  -90.6107   26.9971    0.2342 C   0  0  0  0  0  0  0  0  0  0  0  0
  -89.6757   29.6012   -2.9129 C   0  0  0  0  0  0  0  0  0  0  0  0
  -89.8130   29.5966   -4.1621 O   0  0  0  0  0  0  0  0  0  0  0  0
  -89.1234   30.6896   -2.1878 N   0  0  0  0  0  0  0  0  0  0  0  0
  -88.9868   30.2632   -0.8226 C   0  0  0  0  0  0  0  0  0  0  0  0
  -91.6087   25.2732   -1.2558 C   0  0  0  0  0  0  0  0  0  0  0  0
  -92.0925   24.5314   -0.2088 C   0  0  0  0  0  0  0  0  0  0  0  0
  -92.6891   23.3264   -0.4192 C   0  0  0  0  0  0  0  0  0  0  0  0
  -92.8106   22.8366   -1.7256 C   0  0  0  0  0  0  0  0  0  0  0  0
  -92.3360   23.5685   -2.7366 N   0  0  0  0  0  0  0  0  0  0  0  0
  -91.7538   24.7439   -2.5375 C   0  0  0  0  0  0  0  0  0  0  0  0
  -93.2009   22.5422    0.6489 N   0  0  0  0  0  0  0  0  0  0  0  0
  -92.4357   21.7928    1.2688 O   0  0  0  0  0  0  0  0  0  0  0  0
  -94.5438   22.6132    0.9982 O   0  0  0  0  0  0  0  0  0  0  0  0
  -88.7729   31.9843   -2.6859 C   0  0  0  0  0  0  0  0  0  0  0  0
  -89.6041   33.0458   -2.3504 C   0  0  0  0  0  0  0  0  0  0  0  0
  -89.4088   34.3211   -2.7802 C   0  0  0  0  0  0  0  0  0  0  0  0
  -88.3192   34.5953   -3.6017 C   0  0  0  0  0  0  0  0  0  0  0  0
  -87.4859   33.5290   -3.9332 C   0  0  0  0  0  0  0  0  0  0  0  0
  -87.6896   32.2383   -3.4945 C   0  0  0  0  0  0  0  0  0  0  0  0
  -88.1553   35.8859   -4.0883 N   0  0  0  0  0  0  0  0  0  0  0  0
  -87.6978   36.9080   -3.1224 C   0  0  0  0  0  0  0  0  0  0  0  0
  -88.3517   36.3836   -5.4020 C   0  0  0  0  0  0  0  0  0  0  0  0
  -89.3333   35.7806   -6.2021 C   0  0  0  0  0  0  0  0  0  0  0  0
  -89.5411   36.3118   -7.4457 C   0  0  0  0  0  0  0  0  0  0  0  0
  -88.8533   37.3957   -7.9631 C   0  0  0  0  0  0  0  0  0  0  0  0
  -87.8944   37.9448   -7.1239 N   0  0  0  0  0  0  0  0  0  0  0  0
  -87.6749   37.4401   -5.9035 C   0  0  0  0  0  0  0  0  0  0  0  0
  -89.0149   37.9344   -9.1230 O   0  0  0  0  0  0  0  0  0  0  0  0
  -89.1240   38.5397  -10.2618 C   0  0  0  0  0  0  0  0  0  0  0  0
  -87.5195   30.0747   -0.4904 C   0  0  0  0  0  0  0  0  0  0  0  0
  -86.8965   28.8843   -0.8119 C   0  0  0  0  0  0  0  0  0  0  0  0
  -85.5974   28.7356   -0.5052 N   0  0  0  0  0  0  0  0  0  0  0  0
  -84.8835   29.7103    0.1062 C   0  0  0  0  0  0  0  0  0  0  0  0
  -85.4857   30.9253    0.4443 C   0  0  0  0  0  0  0  0  0  0  0  0
  -86.8167   31.0883    0.1341 C   0  0  0  0  0  0  0  0  0  0  0  0
  -88.9327   27.7556    2.5878 C   0  0  0  0  0  0  0  0  0  0  0  0
  -89.6593   28.6247    1.7250 O   0  0  0  0  0  0  0  0  0  0  0  0
 42 43  1  0  0  0
 43  1  1  0  0  0
  1  2  2  0  0  0
  2  3  1  0  0  0
  3  4  2  0  0  0
  4  5  1  0  0  0
  5 11  1  0  0  0
 11 12  2  0  0  0
 12 13  1  0  0  0
 13 17  1  0  0  0
 17 18  2  0  0  0
 17 19  1  0  0  0
 13 14  2  0  0  0
 14 15  1  0  0  0
 15 16  2  0  0  0
  5  6  2  0  0  0
  3  7  1  0  0  0
  7  8  2  0  0  0
  7  9  1  0  0  0
  9 20  1  0  0  0
 20 21  2  0  0  0
 21 22  1  0  0  0
 22 23  2  0  0  0
 23 26  1  0  0  0
 26 28  1  0  0  0
 28 29  2  0  0  0
 29 30  1  0  0  0
 30 31  2  0  0  0
 31 34  1  0  0  0
 34 35  1  0  0  0
 31 32  1  0  0  0
 32 33  2  0  0  0
 26 27  1  0  0  0
 23 24  1  0  0  0
 24 25  2  0  0  0
  9 10  1  0  0  0
 10 36  1  0  0  0
 36 37  2  0  0  0
 37 38  1  0  0  0
 38 39  2  0  0  0
 39 40  1  0  0  0
 40 41  2  0  0  0
  6  1  1  0  0  0
 25 20  1  0  0  0
 41 36  1  0  0  0
 10  2  1  0  0  0
 16 11  1  0  0  0
 33 28  1  0  0  0
M  CHG 1  17   1
M  CHG 1  19  -1
M  END
> <minimizedAffinity>
-7.48058

> <CNNscore>
0.0466488339

> <CNNaffinity>
6.4082474709

> <CNN_VS>
0.2989372611

> <CNNaffinity_variance>
0.2441277504

$$$$
[H]c1nc([H])c(C2([H])c3c(OC([H])([H])[H])c([H])c(-c4c([H])nc([H])c([N+](=O)[O-])c4[H])c([H])c3C(=O)N2c2c([H])c([H])c(N(c3c([H])nc(OC([H])([H])[H])c([H])c3[H])C([H])([H])[H])c([H])c2[H])c([H])c1[H]


 43 48  0  0  0  0  0  0  0  0999 V2000
  -94.1716   27.6446   -6.4185 C   0  0  0  0  0  0  0  0  0  0  0  0
  -93.4941   27.1731   -5.3050 C   0  0  0  0  0  0  0  0  0  0  0  0
  -93.5254   25.8454   -4.9437 C   0  0  0  0  0  0  0  0  0  0  0  0
  -94.2652   24.9427   -5.7142 C   0  0  0  0  0  0  0  0  0  0  0  0
  -94.9484   25.3993   -6.8285 C   0  0  0  0  0  0  0  0  0  0  0  0
  -94.8968   26.7327   -7.1687 C   0  0  0  0  0  0  0  0  0  0  0  0
  -92.6635   25.6540   -3.7910 C   0  0  0  0  0  0  0  0  0  0  0  0
  -92.4297   24.5910   -3.1626 O   0  0  0  0  0  0  0  0  0  0  0  0
  -92.0880   26.9075   -3.4548 N   0  0  0  0  0  0  0  0  0  0  0  0
  -92.7101   27.8969   -4.2903 C   0  0  0  0  0  0  0  0  0  0  0  0
  -95.7019   24.4176   -7.5927 C   0  0  0  0  0  0  0  0  0  0  0  0
  -95.1515   23.2024   -7.9106 C   0  0  0  0  0  0  0  0  0  0  0  0
  -95.8435   22.2893   -8.6452 C   0  0  0  0  0  0  0  0  0  0  0  0
  -97.1379   22.5959   -9.0833 C   0  0  0  0  0  0  0  0  0  0  0  0
  -97.6629   23.7822   -8.7669 N   0  0  0  0  0  0  0  0  0  0  0  0
  -96.9931   24.6760   -8.0508 C   0  0  0  0  0  0  0  0  0  0  0  0
  -95.2957   21.0231   -8.9836 N   0  0  0  0  0  0  0  0  0  0  0  0
  -95.9928   20.0090   -8.8538 O   0  0  0  0  0  0  0  0  0  0  0  0
  -93.9933   20.9197   -9.4566 O   0  0  0  0  0  0  0  0  0  0  0  0
  -91.0689   27.1701   -2.4855 C   0  0  0  0  0  0  0  0  0  0  0  0
  -91.4550   27.2359   -1.1525 C   0  0  0  0  0  0  0  0  0  0  0  0
  -90.5984   27.5092   -0.1323 C   0  0  0  0  0  0  0  0  0  0  0  0
  -89.2563   27.7367   -0.4226 C   0  0  0  0  0  0  0  0  0  0  0  0
  -88.8722   27.6665   -1.7600 C   0  0  0  0  0  0  0  0  0  0  0  0
  -89.7455   27.3895   -2.7897 C   0  0  0  0  0  0  0  0  0  0  0  0
  -88.3950   28.0746    0.6134 N   0  0  0  0  0  0  0  0  0  0  0  0
  -88.7562   27.5911    1.9635 C   0  0  0  0  0  0  0  0  0  0  0  0
  -87.1878   28.8184    0.5732 C   0  0  0  0  0  0  0  0  0  0  0  0
  -87.2287   30.1262    0.0680 C   0  0  0  0  0  0  0  0  0  0  0  0
  -86.0631   30.8424    0.0884 C   0  0  0  0  0  0  0  0  0  0  0  0
  -84.8560   30.3669    0.5704 C   0  0  0  0  0  0  0  0  0  0  0  0
  -84.8814   29.0663    1.0531 N   0  0  0  0  0  0  0  0  0  0  0  0
  -86.0111   28.3480    1.0420 C   0  0  0  0  0  0  0  0  0  0  0  0
  -83.7351   31.0018    0.6154 O   0  0  0  0  0  0  0  0  0  0  0  0
  -82.5916   31.5964    0.7346 C   0  0  0  0  0  0  0  0  0  0  0  0
  -93.6269   28.7686   -3.4545 C   0  0  0  0  0  0  0  0  0  0  0  0
  -93.3508   30.1157   -3.3220 C   0  0  0  0  0  0  0  0  0  0  0  0
  -94.1728   30.8696   -2.5737 N   0  0  0  0  0  0  0  0  0  0  0  0
  -95.2572   30.3532   -1.9485 C   0  0  0  0  0  0  0  0  0  0  0  0
  -95.5625   28.9943   -2.0631 C   0  0  0  0  0  0  0  0  0  0  0  0
  -94.7269   28.2127   -2.8280 C   0  0  0  0  0  0  0  0  0  0  0  0
  -95.3612   29.7420   -6.8447 C   0  0  0  0  0  0  0  0  0  0  0  0
  -94.1526   28.9898   -6.8107 O   0  0  0  0  0  0  0  0  0  0  0  0
 42 43  1  0  0  0
 43  1  1  0  0  0
  1  2  2  0  0  0
  2  3  1  0  0  0
  3  4  2  0  0  0
  4  5  1  0  0  0
  5 11  1  0  0  0
 11 12  2  0  0  0
 12 13  1  0  0  0
 13 17  1  0  0  0
 17 18  2  0  0  0
 17 19  1  0  0  0
 13 14  2  0  0  0
 14 15  1  0  0  0
 15 16  2  0  0  0
  5  6  2  0  0  0
  3  7  1  0  0  0
  7  8  2  0  0  0
  7  9  1  0  0  0
  9 20  1  0  0  0
 20 21  2  0  0  0
 21 22  1  0  0  0
 22 23  2  0  0  0
 23 26  1  0  0  0
 26 28  1  0  0  0
 28 29  2  0  0  0
 29 30  1  0  0  0
 30 31  2  0  0  0
 31 34  1  0  0  0
 34 35  1  0  0  0
 31 32  1  0  0  0
 32 33  2  0  0  0
 26 27  1  0  0  0
 23 24  1  0  0  0
 24 25  2  0  0  0
  9 10  1  0  0  0
 10 36  1  0  0  0
 36 37  2  0  0  0
 37 38  1  0  0  0
 38 39  2  0  0  0
 39 40  1  0  0  0
 40 41  2  0  0  0
  6  1  1  0  0  0
 25 20  1  0  0  0
 41 36  1  0  0  0
 10  2  1  0  0  0
 16 11  1  0  0  0
 33 28  1  0  0  0
M  CHG 1  17   1
M  CHG 1  19  -1
M  END
> <minimizedAffinity>
-7.45110

> <CNNscore>
0.0372123346

> <CNNaffinity>
5.9063377380

> <CNN_VS>
0.2197886109

> <CNNaffinity_variance>
0.1165716499

$$$$
[H]c1nc([H])c(C2([H])c3c(OC([H])([H])[H])c([H])c(-c4c([H])nc([H])c([N+](=O)[O-])c4[H])c([H])c3C(=O)N2c2c([H])c([H])c(N(c3c([H])nc(OC([H])([H])[H])c([H])c3[H])C([H])([H])[H])c([H])c2[H])c([H])c1[H]


 43 48  0  0  0  0  0  0  0  0999 V2000
  -87.7206   30.2193   -0.7067 C   0  0  0  0  0  0  0  0  0  0  0  0
  -88.7656   29.4516   -1.1962 C   0  0  0  0  0  0  0  0  0  0  0  0
  -89.6662   29.9487   -2.1106 C   0  0  0  0  0  0  0  0  0  0  0  0
  -89.5322   31.2672   -2.5574 C   0  0  0  0  0  0  0  0  0  0  0  0
  -88.4941   32.0466   -2.0761 C   0  0  0  0  0  0  0  0  0  0  0  0
  -87.6055   31.5223   -1.1642 C   0  0  0  0  0  0  0  0  0  0  0  0
  -90.5866   28.8895   -2.4838 C   0  0  0  0  0  0  0  0  0  0  0  0
  -91.5529   28.9455   -3.2854 O   0  0  0  0  0  0  0  0  0  0  0  0
  -90.2202   27.7143   -1.7767 N   0  0  0  0  0  0  0  0  0  0  0  0
  -89.1827   28.0817   -0.8533 C   0  0  0  0  0  0  0  0  0  0  0  0
  -88.4028   33.4102   -2.5741 C   0  0  0  0  0  0  0  0  0  0  0  0
  -89.4898   34.0251   -3.1406 C   0  0  0  0  0  0  0  0  0  0  0  0
  -89.4036   35.2924   -3.6291 C   0  0  0  0  0  0  0  0  0  0  0  0
  -88.1854   35.9790   -3.5520 C   0  0  0  0  0  0  0  0  0  0  0  0
  -87.1344   35.3697   -2.9976 N   0  0  0  0  0  0  0  0  0  0  0  0
  -87.2127   34.1346   -2.5195 C   0  0  0  0  0  0  0  0  0  0  0  0
  -90.5166   35.9509   -4.2168 N   0  0  0  0  0  0  0  0  0  0  0  0
  -90.9265   37.0065   -3.7180 O   0  0  0  0  0  0  0  0  0  0  0  0
  -91.1401   35.4204   -5.3395 O   0  0  0  0  0  0  0  0  0  0  0  0
  -90.7504   26.3953   -1.9384 C   0  0  0  0  0  0  0  0  0  0  0  0
  -92.1158   26.2778   -2.1672 C   0  0  0  0  0  0  0  0  0  0  0  0
  -92.7568   25.0868   -2.3071 C   0  0  0  0  0  0  0  0  0  0  0  0
  -92.0182   23.9102   -2.2204 C   0  0  0  0  0  0  0  0  0  0  0  0
  -90.6488   24.0321   -1.9943 C   0  0  0  0  0  0  0  0  0  0  0  0
  -90.0049   25.2425   -1.8529 C   0  0  0  0  0  0  0  0  0  0  0  0
  -92.6837   22.6939   -2.3037 N   0  0  0  0  0  0  0  0  0  0  0  0
  -93.0031   22.2019   -3.6612 C   0  0  0  0  0  0  0  0  0  0  0  0
  -93.1029   21.8248   -1.2639 C   0  0  0  0  0  0  0  0  0  0  0  0
  -92.1203   21.1546   -0.5204 C   0  0  0  0  0  0  0  0  0  0  0  0
  -92.5464   20.3634    0.5112 C   0  0  0  0  0  0  0  0  0  0  0  0
  -93.8714   20.1814    0.8677 C   0  0  0  0  0  0  0  0  0  0  0  0
  -94.7937   20.8690    0.0920 N   0  0  0  0  0  0  0  0  0  0  0  0
  -94.3981   21.6481   -0.9223 C   0  0  0  0  0  0  0  0  0  0  0  0
  -94.3220   19.4527    1.8308 O   0  0  0  0  0  0  0  0  0  0  0  0
  -94.6954   18.7264    2.8349 C   0  0  0  0  0  0  0  0  0  0  0  0
  -89.7227   28.0457    0.5631 C   0  0  0  0  0  0  0  0  0  0  0  0
  -89.1535   27.1906    1.4868 C   0  0  0  0  0  0  0  0  0  0  0  0
  -89.6492   27.1707    2.7349 N   0  0  0  0  0  0  0  0  0  0  0  0
  -90.6838   27.9579    3.1136 C   0  0  0  0  0  0  0  0  0  0  0  0
  -91.2808   28.8328    2.2020 C   0  0  0  0  0  0  0  0  0  0  0  0
  -90.7802   28.8615    0.9203 C   0  0  0  0  0  0  0  0  0  0  0  0
  -85.5461   29.2011   -0.2261 C   0  0  0  0  0  0  0  0  0  0  0  0
  -86.7876   29.7363    0.2208 O   0  0  0  0  0  0  0  0  0  0  0  0
 42 43  1  0  0  0
 43  1  1  0  0  0
  1  2  2  0  0  0
  2  3  1  0  0  0
  3  4  2  0  0  0
  4  5  1  0  0  0
  5 11  1  0  0  0
 11 12  2  0  0  0
 12 13  1  0  0  0
 13 17  1  0  0  0
 17 18  2  0  0  0
 17 19  1  0  0  0
 13 14  2  0  0  0
 14 15  1  0  0  0
 15 16  2  0  0  0
  5  6  2  0  0  0
  3  7  1  0  0  0
  7  8  2  0  0  0
  7  9  1  0  0  0
  9 20  1  0  0  0
 20 21  2  0  0  0
 21 22  1  0  0  0
 22 23  2  0  0  0
 23 26  1  0  0  0
 26 28  1  0  0  0
 28 29  2  0  0  0
 29 30  1  0  0  0
 30 31  2  0  0  0
 31 34  1  0  0  0
 34 35  1  0  0  0
 31 32  1  0  0  0
 32 33  2  0  0  0
 26 27  1  0  0  0
 23 24  1  0  0  0
 24 25  2  0  0  0
  9 10  1  0  0  0
 10 36  1  0  0  0
 36 37  2  0  0  0
 37 38  1  0  0  0
 38 39  2  0  0  0
 39 40  1  0  0  0
 40 41  2  0  0  0
  6  1  1  0  0  0
 25 20  1  0  0  0
 41 36  1  0  0  0
 10  2  1  0  0  0
 16 11  1  0  0  0
 33 28  1  0  0  0
M  CHG 1  17   1
M  CHG 1  19  -1
M  END
> <minimizedAffinity>
-7.26262

> <CNNscore>
0.0368076526

> <CNNaffinity>
6.2040863037

> <CNN_VS>
0.2283578515

> <CNNaffinity_variance>
0.3580152690

$$$$
[H]c1nc([H])c(C2([H])c3c(OC([H])([H])[H])c([H])c(-c4c([H])nc([H])c([N+](=O)[O-])c4[H])c([H])c3C(=O)N2c2c([H])c([H])c(N(c3c([H])nc(OC([H])([H])[H])c([H])c3[H])C([H])([H])[H])c([H])c2[H])c([H])c1[H]


 43 48  0  0  0  0  0  0  0  0999 V2000
  -87.2152   28.9158    0.6964 C   0  0  0  0  0  0  0  0  0  0  0  0
  -88.2877   28.1746    0.2260 C   0  0  0  0  0  0  0  0  0  0  0  0
  -89.1210   28.6485   -0.7617 C   0  0  0  0  0  0  0  0  0  0  0  0
  -88.8879   29.9158   -1.3054 C   0  0  0  0  0  0  0  0  0  0  0  0
  -87.8212   30.6684   -0.8444 C   0  0  0  0  0  0  0  0  0  0  0  0
  -87.0015   30.1680    0.1425 C   0  0  0  0  0  0  0  0  0  0  0  0
  -90.0918   27.6194   -1.0881 C   0  0  0  0  0  0  0  0  0  0  0  0
  -91.0225   27.6675   -1.9313 O   0  0  0  0  0  0  0  0  0  0  0  0
  -89.8265   26.4859   -0.2755 N   0  0  0  0  0  0  0  0  0  0  0  0
  -88.8027   26.8647    0.6585 C   0  0  0  0  0  0  0  0  0  0  0  0
  -87.6259   31.9789   -1.4444 C   0  0  0  0  0  0  0  0  0  0  0  0
  -88.6320   32.5835   -2.1534 C   0  0  0  0  0  0  0  0  0  0  0  0
  -88.4470   33.7993   -2.7364 C   0  0  0  0  0  0  0  0  0  0  0  0
  -87.2094   34.4426   -2.6103 C   0  0  0  0  0  0  0  0  0  0  0  0
  -86.2378   33.8438   -1.9171 N   0  0  0  0  0  0  0  0  0  0  0  0
  -86.4127   32.6590   -1.3463 C   0  0  0  0  0  0  0  0  0  0  0  0
  -89.4753   34.4464   -3.4724 N   0  0  0  0  0  0  0  0  0  0  0  0
  -89.6480   35.6631   -3.3274 O   0  0  0  0  0  0  0  0  0  0  0  0
  -90.2795   33.7262   -4.3471 O   0  0  0  0  0  0  0  0  0  0  0  0
  -90.4324   25.1922   -0.3544 C   0  0  0  0  0  0  0  0  0  0  0  0
  -91.6744   25.0292    0.2468 C   0  0  0  0  0  0  0  0  0  0  0  0
  -92.3486   23.8487    0.2759 C   0  0  0  0  0  0  0  0  0  0  0  0
  -91.7771   22.7318   -0.3270 C   0  0  0  0  0  0  0  0  0  0  0  0
  -90.5333   22.8998   -0.9318 C   0  0  0  0  0  0  0  0  0  0  0  0
  -89.8547   24.0992   -0.9575 C   0  0  0  0  0  0  0  0  0  0  0  0
  -92.4393   21.5137   -0.2442 N   0  0  0  0  0  0  0  0  0  0  0  0
  -92.0939   20.6452    0.9018 C   0  0  0  0  0  0  0  0  0  0  0  0
  -93.4278   20.9670   -1.1023 C   0  0  0  0  0  0  0  0  0  0  0  0
  -93.8252   21.7146   -2.2206 C   0  0  0  0  0  0  0  0  0  0  0  0
  -94.7405   21.1442   -3.0624 C   0  0  0  0  0  0  0  0  0  0  0  0
  -95.2962   19.8889   -2.8861 C   0  0  0  0  0  0  0  0  0  0  0  0
  -94.8642   19.2022   -1.7604 N   0  0  0  0  0  0  0  0  0  0  0  0
  -93.9696   19.7422   -0.9236 C   0  0  0  0  0  0  0  0  0  0  0  0
  -96.1559   19.3073   -3.6506 O   0  0  0  0  0  0  0  0  0  0  0  0
  -96.9927   18.7761   -4.4828 C   0  0  0  0  0  0  0  0  0  0  0  0
  -89.3957   26.9767    2.0494 C   0  0  0  0  0  0  0  0  0  0  0  0
  -89.0121   26.0790    3.0270 C   0  0  0  0  0  0  0  0  0  0  0  0
  -89.5524   26.1926    4.2514 N   0  0  0  0  0  0  0  0  0  0  0  0
  -90.4563   27.1538    4.5555 C   0  0  0  0  0  0  0  0  0  0  0  0
  -90.8644   28.0761    3.5881 C   0  0  0  0  0  0  0  0  0  0  0  0
  -90.3166   27.9689    2.3301 C   0  0  0  0  0  0  0  0  0  0  0  0
  -85.0119   28.9392    1.7646 C   0  0  0  0  0  0  0  0  0  0  0  0
  -86.3494   28.4552    1.6974 O   0  0  0  0  0  0  0  0  0  0  0  0
 42 43  1  0  0  0
 43  1  1  0  0  0
  1  2  2  0  0  0
  2  3  1  0  0  0
  3  4  2  0  0  0
  4  5  1  0  0  0
  5 11  1  0  0  0
 11 12  2  0  0  0
 12 13  1  0  0  0
 13 17  1  0  0  0
 17 18  2  0  0  0
 17 19  1  0  0  0
 13 14  2  0  0  0
 14 15  1  0  0  0
 15 16  2  0  0  0
  5  6  2  0  0  0
  3  7  1  0  0  0
  7  8  2  0  0  0
  7  9  1  0  0  0
  9 20  1  0  0  0
 20 21  2  0  0  0
 21 22  1  0  0  0
 22 23  2  0  0  0
 23 26  1  0  0  0
 26 28  1  0  0  0
 28 29  2  0  0  0
 29 30  1  0  0  0
 30 31  2  0  0  0
 31 34  1  0  0  0
 34 35  1  0  0  0
 31 32  1  0  0  0
 32 33  2  0  0  0
 26 27  1  0  0  0
 23 24  1  0  0  0
 24 25  2  0  0  0
  9 10  1  0  0  0
 10 36  1  0  0  0
 36 37  2  0  0  0
 37 38  1  0  0  0
 38 39  2  0  0  0
 39 40  1  0  0  0
 40 41  2  0  0  0
  6  1  1  0  0  0
 25 20  1  0  0  0
 41 36  1  0  0  0
 10  2  1  0  0  0
 16 11  1  0  0  0
 33 28  1  0  0  0
M  CHG 1  17   1
M  CHG 1  19  -1
M  END
> <minimizedAffinity>
-8.07284

> <CNNscore>
0.0359935649

> <CNNaffinity>
6.2710428238

> <CNN_VS>
0.2257171869

> <CNNaffinity_variance>
0.3374460340

$$$$
[H]c1c([H])c(C(F)(F)F)c([H])c([H])c1-c1nc(N([H])c2c([H])c([H])c(C(F)(F)F)c([H])c2[H])nc(N([H])[C@]2([H])C([H])([H])C([H])([H])[C@]([H])(C([H])([H])[H])C([H])([H])C2([H])[H])n1


 37 40  0  0  0  0  0  0  0  0999 V2000
  -88.7591   32.3480   -2.9006 C   0  0  0  0  0  0  0  0  0  0  0  0
  -87.6925   32.2918   -2.0047 N   0  0  0  0  0  0  0  0  0  0  0  0
  -86.7151   33.1734   -1.9589 C   0  0  0  0  0  0  0  0  0  0  0  0
  -86.7725   34.1905   -2.8413 N   0  0  0  0  0  0  0  0  0  0  0  0
  -87.8008   34.3281   -3.7662 C   0  0  0  0  0  0  0  0  0  0  0  0
  -88.7361   33.4067   -3.7535 N   0  0  0  0  0  0  0  0  0  0  0  0
  -87.6302   35.5308   -4.5739 C   0  0  0  0  0  0  0  0  0  0  0  0
  -88.0756   35.4832   -5.8774 C   0  0  0  0  0  0  0  0  0  0  0  0
  -87.7284   36.4180   -6.8176 C   0  0  0  0  0  0  0  0  0  0  0  0
  -86.8956   37.4459   -6.4475 C   0  0  0  0  0  0  0  0  0  0  0  0
  -86.4540   37.5186   -5.1729 C   0  0  0  0  0  0  0  0  0  0  0  0
  -86.8053   36.5650   -4.1969 C   0  0  0  0  0  0  0  0  0  0  0  0
  -86.4709   38.4035   -7.5180 C   0  0  0  0  0  0  0  0  0  0  0  0
  -87.1856   39.6020   -7.3734 F   0  0  0  0  0  0  0  0  0  0  0  0
  -86.8304   37.8807   -8.7566 F   0  0  0  0  0  0  0  0  0  0  0  0
  -85.1362   38.7102   -7.4506 F   0  0  0  0  0  0  0  0  0  0  0  0
  -89.7077   31.3383   -2.7907 N   0  0  0  0  0  0  0  0  0  0  0  0
  -90.6088   31.5768   -3.4305 H   0  0  0  0  0  0  0  0  0  0  0  0
  -88.0116   26.7561   -0.5404 C   0  0  0  0  0  0  0  0  0  0  0  0
  -89.3176   27.4778   -0.8741 C   0  0  0  0  0  0  0  0  0  0  0  0
  -89.3104   27.7112   -2.3490 C   0  0  0  0  0  0  0  0  0  0  0  0
  -88.7738   29.1207   -2.6392 C   0  0  0  0  0  0  0  0  0  0  0  0
  -89.8504   30.1012   -2.1570 C   0  0  0  0  0  0  0  0  0  0  0  0
  -90.0420   29.9147   -0.7373 C   0  0  0  0  0  0  0  0  0  0  0  0
  -89.3279   28.7527   -0.0737 C   0  0  0  0  0  0  0  0  0  0  0  0
  -85.6604   33.1803   -0.9960 N   0  0  0  0  0  0  0  0  0  0  0  0
  -85.1901   34.1335   -0.8587 H   0  0  0  0  0  0  0  0  0  0  0  0
  -85.1774   32.1442   -0.2339 C   0  0  0  0  0  0  0  0  0  0  0  0
  -86.0781   31.1562    0.1471 C   0  0  0  0  0  0  0  0  0  0  0  0
  -85.6991   30.1128    0.9889 C   0  0  0  0  0  0  0  0  0  0  0  0
  -84.3992   30.0915    1.4208 C   0  0  0  0  0  0  0  0  0  0  0  0
  -83.4670   31.0554    1.0630 C   0  0  0  0  0  0  0  0  0  0  0  0
  -83.8882   32.0943    0.2172 C   0  0  0  0  0  0  0  0  0  0  0  0
  -84.0014   28.9908    2.3099 C   0  0  0  0  0  0  0  0  0  0  0  0
  -84.6043   29.1778    3.5390 F   0  0  0  0  0  0  0  0  0  0  0  0
  -82.6139   28.9328    2.4567 F   0  0  0  0  0  0  0  0  0  0  0  0
  -84.4269   27.7711    1.7926 F   0  0  0  0  0  0  0  0  0  0  0  0
 19 20  1  0  0  0
 20 21  1  0  0  0
 21 22  1  0  0  0
 22 23  1  0  0  0
 23 24  1  0  0  0
 24 25  1  0  0  0
 23 17  1  0  0  0
 17  1  1  0  0  0
  1  2  2  0  0  0
  2  3  1  0  0  0
  3 26  1  0  0  0
 26 28  1  0  0  0
 28 29  2  0  0  0
 29 30  1  0  0  0
 30 31  2  0  0  0
 31 32  1  0  0  0
 32 33  2  0  0  0
 31 34  1  0  0  0
 34 35  1  0  0  0
 34 36  1  0  0  0
 34 37  1  0  0  0
  3  4  2  0  0  0
  4  5  1  0  0  0
  5  6  2  0  0  0
  5  7  1  0  0  0
  7  8  2  0  0  0
  8  9  1  0  0  0
  9 10  2  0  0  0
 10 11  1  0  0  0
 11 12  2  0  0  0
 10 13  1  0  0  0
 13 14  1  0  0  0
 13 15  1  0  0  0
 13 16  1  0  0  0
 25 20  1  0  0  0
  6  1  1  0  0  0
 12  7  1  0  0  0
 33 28  1  0  0  0
 17 18  1  0  0  0
 26 27  1  0  0  0
M  END
> <minimizedAffinity>
-9.65081

> <CNNscore>
0.2271131277

> <CNNaffinity>
7.0245656967

> <CNN_VS>
1.5953711271

> <CNNaffinity_variance>
0.4039734304

$$$$
[H]c1c([H])c(C(F)(F)F)c([H])c([H])c1-c1nc(N([H])c2c([H])c([H])c(C(F)(F)F)c([H])c2[H])nc(N([H])[C@]2([H])C([H])([H])C([H])([H])[C@]([H])(C([H])([H])[H])C([H])([H])C2([H])[H])n1


 37 40  0  0  0  0  0  0  0  0999 V2000
  -90.5962   31.5463   -2.5976 C   0  0  0  0  0  0  0  0  0  0  0  0
  -91.3099   30.5908   -1.8757 N   0  0  0  0  0  0  0  0  0  0  0  0
  -90.7979   29.8559   -0.9101 C   0  0  0  0  0  0  0  0  0  0  0  0
  -89.4993   30.0610   -0.6137 N   0  0  0  0  0  0  0  0  0  0  0  0
  -88.7138   30.9957   -1.2779 C   0  0  0  0  0  0  0  0  0  0  0  0
  -89.2941   31.6865   -2.2318 N   0  0  0  0  0  0  0  0  0  0  0  0
  -87.3597   31.0312   -0.7363 C   0  0  0  0  0  0  0  0  0  0  0  0
  -86.9366   29.9298   -0.0239 C   0  0  0  0  0  0  0  0  0  0  0  0
  -85.8195   29.9405    0.7700 C   0  0  0  0  0  0  0  0  0  0  0  0
  -85.0908   31.1011    0.8652 C   0  0  0  0  0  0  0  0  0  0  0  0
  -85.4808   32.1908    0.1685 C   0  0  0  0  0  0  0  0  0  0  0  0
  -86.6260   32.1918   -0.6524 C   0  0  0  0  0  0  0  0  0  0  0  0
  -83.9236   31.1029    1.8038 C   0  0  0  0  0  0  0  0  0  0  0  0
  -84.2266   31.9057    2.9136 F   0  0  0  0  0  0  0  0  0  0  0  0
  -82.8394   31.7036    1.1709 F   0  0  0  0  0  0  0  0  0  0  0  0
  -83.6233   29.8499    2.2726 F   0  0  0  0  0  0  0  0  0  0  0  0
  -91.3073   32.2390   -3.5702 N   0  0  0  0  0  0  0  0  0  0  0  0
  -92.3093   32.5676   -3.1625 H   0  0  0  0  0  0  0  0  0  0  0  0
  -91.8067   35.6309   -7.7155 C   0  0  0  0  0  0  0  0  0  0  0  0
  -91.1998   34.2650   -7.3929 C   0  0  0  0  0  0  0  0  0  0  0  0
  -92.3197   33.4059   -6.9052 C   0  0  0  0  0  0  0  0  0  0  0  0
  -92.3622   33.4469   -5.3705 C   0  0  0  0  0  0  0  0  0  0  0  0
  -91.1253   32.6819   -4.8828 C   0  0  0  0  0  0  0  0  0  0  0  0
  -89.9441   33.3527   -5.3747 C   0  0  0  0  0  0  0  0  0  0  0  0
  -90.1355   34.4954   -6.3536 C   0  0  0  0  0  0  0  0  0  0  0  0
  -91.5316   28.9332   -0.1038 N   0  0  0  0  0  0  0  0  0  0  0  0
  -92.5243   28.7299   -0.4527 H   0  0  0  0  0  0  0  0  0  0  0  0
  -91.1395   28.2814    1.0403 C   0  0  0  0  0  0  0  0  0  0  0  0
  -90.7556   26.9508    0.9189 C   0  0  0  0  0  0  0  0  0  0  0  0
  -90.4233   26.1857    2.0348 C   0  0  0  0  0  0  0  0  0  0  0  0
  -90.4800   26.7982    3.2589 C   0  0  0  0  0  0  0  0  0  0  0  0
  -90.8551   28.1240    3.4251 C   0  0  0  0  0  0  0  0  0  0  0  0
  -91.1878   28.8611    2.2770 C   0  0  0  0  0  0  0  0  0  0  0  0
  -90.1305   25.9891    4.4351 C   0  0  0  0  0  0  0  0  0  0  0  0
  -91.0257   24.9409    4.5304 F   0  0  0  0  0  0  0  0  0  0  0  0
  -90.1566   26.7538    5.6034 F   0  0  0  0  0  0  0  0  0  0  0  0
  -88.8498   25.4624    4.2987 F   0  0  0  0  0  0  0  0  0  0  0  0
 19 20  1  0  0  0
 20 21  1  0  0  0
 21 22  1  0  0  0
 22 23  1  0  0  0
 23 24  1  0  0  0
 24 25  1  0  0  0
 23 17  1  0  0  0
 17  1  1  0  0  0
  1  2  2  0  0  0
  2  3  1  0  0  0
  3 26  1  0  0  0
 26 28  1  0  0  0
 28 29  2  0  0  0
 29 30  1  0  0  0
 30 31  2  0  0  0
 31 32  1  0  0  0
 32 33  2  0  0  0
 31 34  1  0  0  0
 34 35  1  0  0  0
 34 36  1  0  0  0
 34 37  1  0  0  0
  3  4  2  0  0  0
  4  5  1  0  0  0
  5  6  2  0  0  0
  5  7  1  0  0  0
  7  8  2  0  0  0
  8  9  1  0  0  0
  9 10  2  0  0  0
 10 11  1  0  0  0
 11 12  2  0  0  0
 10 13  1  0  0  0
 13 14  1  0  0  0
 13 15  1  0  0  0
 13 16  1  0  0  0
 25 20  1  0  0  0
  6  1  1  0  0  0
 12  7  1  0  0  0
 33 28  1  0  0  0
 17 18  1  0  0  0
 26 27  1  0  0  0
M  END
> <minimizedAffinity>
-9.79635

> <CNNscore>
0.1535507143

> <CNNaffinity>
6.4357042313

> <CNN_VS>
0.9882069826

> <CNNaffinity_variance>
0.1848953962

$$$$
[H]c1c([H])c(C(F)(F)F)c([H])c([H])c1-c1nc(N([H])c2c([H])c([H])c(C(F)(F)F)c([H])c2[H])nc(N([H])[C@]2([H])C([H])([H])C([H])([H])[C@]([H])(C([H])([H])[H])C([H])([H])C2([H])[H])n1


 37 40  0  0  0  0  0  0  0  0999 V2000
  -89.8852   31.8825   -2.3920 C   0  0  0  0  0  0  0  0  0  0  0  0
  -90.7512   30.9280   -1.8604 N   0  0  0  0  0  0  0  0  0  0  0  0
  -90.4300   30.0906   -0.8959 C   0  0  0  0  0  0  0  0  0  0  0  0
  -89.1795   30.1834   -0.4020 N   0  0  0  0  0  0  0  0  0  0  0  0
  -88.2523   31.1079   -0.8682 C   0  0  0  0  0  0  0  0  0  0  0  0
  -88.6452   31.9053   -1.8345 N   0  0  0  0  0  0  0  0  0  0  0  0
  -86.9928   31.0100   -0.1387 C   0  0  0  0  0  0  0  0  0  0  0  0
  -86.1589   32.1069   -0.1706 C   0  0  0  0  0  0  0  0  0  0  0  0
  -84.8460   32.0558    0.2192 C   0  0  0  0  0  0  0  0  0  0  0  0
  -84.3354   30.8579    0.6567 C   0  0  0  0  0  0  0  0  0  0  0  0
  -85.1365   29.7713    0.7058 C   0  0  0  0  0  0  0  0  0  0  0  0
  -86.4881   29.8115    0.3096 C   0  0  0  0  0  0  0  0  0  0  0  0
  -82.8775   30.8175    0.9977 C   0  0  0  0  0  0  0  0  0  0  0  0
  -82.5288   31.9992    1.6685 F   0  0  0  0  0  0  0  0  0  0  0  0
  -82.1405   30.8058   -0.1827 F   0  0  0  0  0  0  0  0  0  0  0  0
  -82.5583   29.7683    1.8206 F   0  0  0  0  0  0  0  0  0  0  0  0
  -90.4044   32.6921   -3.3952 N   0  0  0  0  0  0  0  0  0  0  0  0
  -91.4472   32.3532   -3.6709 H   0  0  0  0  0  0  0  0  0  0  0  0
  -87.5201   37.1041   -4.4689 C   0  0  0  0  0  0  0  0  0  0  0  0
  -88.6916   36.3079   -5.0448 C   0  0  0  0  0  0  0  0  0  0  0  0
  -89.7375   36.2589   -3.9802 C   0  0  0  0  0  0  0  0  0  0  0  0
  -89.5940   34.9530   -3.1846 C   0  0  0  0  0  0  0  0  0  0  0  0
  -90.0303   33.8229   -4.1256 C   0  0  0  0  0  0  0  0  0  0  0  0
  -89.1543   33.8148   -5.2744 C   0  0  0  0  0  0  0  0  0  0  0  0
  -88.1569   34.9493   -5.4115 C   0  0  0  0  0  0  0  0  0  0  0  0
  -91.3262   29.1640   -0.2812 N   0  0  0  0  0  0  0  0  0  0  0  0
  -92.2864   29.0952   -0.7522 H   0  0  0  0  0  0  0  0  0  0  0  0
  -91.1236   28.3613    0.8152 C   0  0  0  0  0  0  0  0  0  0  0  0
  -91.1702   28.9644    2.0669 C   0  0  0  0  0  0  0  0  0  0  0  0
  -90.8940   28.2479    3.2294 C   0  0  0  0  0  0  0  0  0  0  0  0
  -90.5832   26.9206    3.0933 C   0  0  0  0  0  0  0  0  0  0  0  0
  -90.5281   26.2785    1.8642 C   0  0  0  0  0  0  0  0  0  0  0  0
  -90.8077   27.0354    0.7148 C   0  0  0  0  0  0  0  0  0  0  0  0
  -90.2908   26.1666    4.3206 C   0  0  0  0  0  0  0  0  0  0  0  0
  -91.2056   25.1373    4.4335 F   0  0  0  0  0  0  0  0  0  0  0  0
  -90.3481   26.9891    5.4477 F   0  0  0  0  0  0  0  0  0  0  0  0
  -89.0145   25.6156    4.2592 F   0  0  0  0  0  0  0  0  0  0  0  0
 19 20  1  0  0  0
 20 21  1  0  0  0
 21 22  1  0  0  0
 22 23  1  0  0  0
 23 24  1  0  0  0
 24 25  1  0  0  0
 23 17  1  0  0  0
 17  1  1  0  0  0
  1  2  2  0  0  0
  2  3  1  0  0  0
  3 26  1  0  0  0
 26 28  1  0  0  0
 28 29  2  0  0  0
 29 30  1  0  0  0
 30 31  2  0  0  0
 31 32  1  0  0  0
 32 33  2  0  0  0
 31 34  1  0  0  0
 34 35  1  0  0  0
 34 36  1  0  0  0
 34 37  1  0  0  0
  3  4  2  0  0  0
  4  5  1  0  0  0
  5  6  2  0  0  0
  5  7  1  0  0  0
  7  8  2  0  0  0
  8  9  1  0  0  0
  9 10  2  0  0  0
 10 11  1  0  0  0
 11 12  2  0  0  0
 10 13  1  0  0  0
 13 14  1  0  0  0
 13 15  1  0  0  0
 13 16  1  0  0  0
 25 20  1  0  0  0
  6  1  1  0  0  0
 12  7  1  0  0  0
 33 28  1  0  0  0
 17 18  1  0  0  0
 26 27  1  0  0  0
M  END
> <minimizedAffinity>
-10.15812

> <CNNscore>
0.1409332156

> <CNNaffinity>
6.6167082787

> <CNN_VS>
0.9325139523

> <CNNaffinity_variance>
0.2203229964

$$$$
[H]c1c([H])c(C(F)(F)F)c([H])c([H])c1-c1nc(N([H])c2c([H])c([H])c(C(F)(F)F)c([H])c2[H])nc(N([H])[C@]2([H])C([H])([H])C([H])([H])[C@]([H])(C([H])([H])[H])C([H])([H])C2([H])[H])n1


 37 40  0  0  0  0  0  0  0  0999 V2000
  -86.3893   32.5156   -0.5750 C   0  0  0  0  0  0  0  0  0  0  0  0
  -87.4675   31.6930   -0.2519 N   0  0  0  0  0  0  0  0  0  0  0  0
  -88.6444   31.7474   -0.8409 C   0  0  0  0  0  0  0  0  0  0  0  0
  -88.7921   32.6614   -1.8202 N   0  0  0  0  0  0  0  0  0  0  0  0
  -87.7700   33.5185   -2.2109 C   0  0  0  0  0  0  0  0  0  0  0  0
  -86.6275   33.4073   -1.5735 N   0  0  0  0  0  0  0  0  0  0  0  0
  -88.1918   34.3807   -3.3094 C   0  0  0  0  0  0  0  0  0  0  0  0
  -89.5468   34.5040   -3.5297 C   0  0  0  0  0  0  0  0  0  0  0  0
  -90.0689   35.0378   -4.6788 C   0  0  0  0  0  0  0  0  0  0  0  0
  -89.2051   35.4650   -5.6579 C   0  0  0  0  0  0  0  0  0  0  0  0
  -87.8726   35.3630   -5.4604 C   0  0  0  0  0  0  0  0  0  0  0  0
  -87.3236   34.8179   -4.2828 C   0  0  0  0  0  0  0  0  0  0  0  0
  -89.8086   35.9675   -6.9332 C   0  0  0  0  0  0  0  0  0  0  0  0
  -90.8918   36.8061   -6.6307 F   0  0  0  0  0  0  0  0  0  0  0  0
  -90.3343   34.8882   -7.6371 F   0  0  0  0  0  0  0  0  0  0  0  0
  -88.9221   36.6959   -7.6839 F   0  0  0  0  0  0  0  0  0  0  0  0
  -85.2180   32.3031    0.1422 N   0  0  0  0  0  0  0  0  0  0  0  0
  -84.4364   33.0657   -0.1505 H   0  0  0  0  0  0  0  0  0  0  0  0
  -83.9872   27.5700    2.3827 C   0  0  0  0  0  0  0  0  0  0  0  0
  -83.9613   29.0614    2.7191 C   0  0  0  0  0  0  0  0  0  0  0  0
  -85.3637   29.5543    2.5777 C   0  0  0  0  0  0  0  0  0  0  0  0
  -85.5551   30.1510    1.1754 C   0  0  0  0  0  0  0  0  0  0  0  0
  -84.7449   31.4532    1.1452 C   0  0  0  0  0  0  0  0  0  0  0  0
  -83.3542   31.1369    1.3754 C   0  0  0  0  0  0  0  0  0  0  0  0
  -83.0063   29.7096    1.7527 C   0  0  0  0  0  0  0  0  0  0  0  0
  -89.7330   30.8597   -0.5831 N   0  0  0  0  0  0  0  0  0  0  0  0
  -90.6882   31.2220   -0.9069 H   0  0  0  0  0  0  0  0  0  0  0  0
  -89.7182   29.6225    0.0143 C   0  0  0  0  0  0  0  0  0  0  0  0
  -90.7441   29.3303    0.9057 C   0  0  0  0  0  0  0  0  0  0  0  0
  -90.7662   28.1353    1.6217 C   0  0  0  0  0  0  0  0  0  0  0  0
  -89.7411   27.2523    1.4066 C   0  0  0  0  0  0  0  0  0  0  0  0
  -88.6993   27.5025    0.5245 C   0  0  0  0  0  0  0  0  0  0  0  0
  -88.7092   28.7202   -0.1749 C   0  0  0  0  0  0  0  0  0  0  0  0
  -89.7653   25.9928    2.1638 C   0  0  0  0  0  0  0  0  0  0  0  0
  -89.8755   24.9442    1.2707 F   0  0  0  0  0  0  0  0  0  0  0  0
  -90.8256   25.9666    3.0722 F   0  0  0  0  0  0  0  0  0  0  0  0
  -88.5841   25.8357    2.8824 F   0  0  0  0  0  0  0  0  0  0  0  0
 19 20  1  0  0  0
 20 21  1  0  0  0
 21 22  1  0  0  0
 22 23  1  0  0  0
 23 24  1  0  0  0
 24 25  1  0  0  0
 23 17  1  0  0  0
 17  1  1  0  0  0
  1  2  2  0  0  0
  2  3  1  0  0  0
  3 26  1  0  0  0
 26 28  1  0  0  0
 28 29  2  0  0  0
 29 30  1  0  0  0
 30 31  2  0  0  0
 31 32  1  0  0  0
 32 33  2  0  0  0
 31 34  1  0  0  0
 34 35  1  0  0  0
 34 36  1  0  0  0
 34 37  1  0  0  0
  3  4  2  0  0  0
  4  5  1  0  0  0
  5  6  2  0  0  0
  5  7  1  0  0  0
  7  8  2  0  0  0
  8  9  1  0  0  0
  9 10  2  0  0  0
 10 11  1  0  0  0
 11 12  2  0  0  0
 10 13  1  0  0  0
 13 14  1  0  0  0
 13 15  1  0  0  0
 13 16  1  0  0  0
 25 20  1  0  0  0
  6  1  1  0  0  0
 12  7  1  0  0  0
 33 28  1  0  0  0
 17 18  1  0  0  0
 26 27  1  0  0  0
M  END
> <minimizedAffinity>
-9.80995

> <CNNscore>
0.0945502594

> <CNNaffinity>
6.7330627441

> <CNN_VS>
0.6366128325

> <CNNaffinity_variance>
0.4880114496

$$$$
[H]c1c([H])c(C(F)(F)F)c([H])c([H])c1-c1nc(N([H])c2c([H])c([H])c(C(F)(F)F)c([H])c2[H])nc(N([H])[C@]2([H])C([H])([H])C([H])([H])[C@]([H])(C([H])([H])[H])C([H])([H])C2([H])[H])n1


 37 40  0  0  0  0  0  0  0  0999 V2000
  -87.1400   31.2113   -0.9924 C   0  0  0  0  0  0  0  0  0  0  0  0
  -88.0633   30.3669   -0.3776 N   0  0  0  0  0  0  0  0  0  0  0  0
  -89.2810   30.1459   -0.8282 C   0  0  0  0  0  0  0  0  0  0  0  0
  -89.6347   30.7839   -1.9614 N   0  0  0  0  0  0  0  0  0  0  0  0
  -88.7772   31.6395   -2.6430 C   0  0  0  0  0  0  0  0  0  0  0  0
  -87.5814   31.8128   -2.1291 N   0  0  0  0  0  0  0  0  0  0  0  0
  -89.4039   32.1680   -3.8496 C   0  0  0  0  0  0  0  0  0  0  0  0
  -88.6995   33.1134   -4.5636 C   0  0  0  0  0  0  0  0  0  0  0  0
  -89.2722   33.8918   -5.5354 C   0  0  0  0  0  0  0  0  0  0  0  0
  -90.6085   33.7273   -5.8080 C   0  0  0  0  0  0  0  0  0  0  0  0
  -91.3172   32.8001   -5.1276 C   0  0  0  0  0  0  0  0  0  0  0  0
  -90.7396   31.9926   -4.1278 C   0  0  0  0  0  0  0  0  0  0  0  0
  -91.2210   34.6490   -6.8173 C   0  0  0  0  0  0  0  0  0  0  0  0
  -91.1886   35.9611   -6.3218 F   0  0  0  0  0  0  0  0  0  0  0  0
  -92.5650   34.3208   -6.9678 F   0  0  0  0  0  0  0  0  0  0  0  0
  -90.5475   34.6440   -8.0116 F   0  0  0  0  0  0  0  0  0  0  0  0
  -85.8951   31.3087   -0.3821 N   0  0  0  0  0  0  0  0  0  0  0  0
  -85.2312   32.0188   -0.9592 H   0  0  0  0  0  0  0  0  0  0  0  0
  -83.1400   27.7240    2.5328 C   0  0  0  0  0  0  0  0  0  0  0  0
  -83.7621   29.1134    2.6772 C   0  0  0  0  0  0  0  0  0  0  0  0
  -85.2147   28.9640    2.3653 C   0  0  0  0  0  0  0  0  0  0  0  0
  -85.4566   29.3068    0.8878 C   0  0  0  0  0  0  0  0  0  0  0  0
  -85.2462   30.8204    0.7548 C   0  0  0  0  0  0  0  0  0  0  0  0
  -83.8867   31.1322    1.1310 C   0  0  0  0  0  0  0  0  0  0  0  0
  -83.0401   30.0165    1.7132 C   0  0  0  0  0  0  0  0  0  0  0  0
  -90.2110   29.2222   -0.2612 N   0  0  0  0  0  0  0  0  0  0  0  0
  -91.0159   28.9455   -0.9125 H   0  0  0  0  0  0  0  0  0  0  0  0
  -90.2101   28.6497    0.9878 C   0  0  0  0  0  0  0  0  0  0  0  0
  -89.3356   27.5912    1.2056 C   0  0  0  0  0  0  0  0  0  0  0  0
  -89.3237   26.8950    2.4123 C   0  0  0  0  0  0  0  0  0  0  0  0
  -90.2022   27.2998    3.3825 C   0  0  0  0  0  0  0  0  0  0  0  0
  -91.0898   28.3524    3.2082 C   0  0  0  0  0  0  0  0  0  0  0  0
  -91.0754   29.0263    1.9763 C   0  0  0  0  0  0  0  0  0  0  0  0
  -90.1894   26.5633    4.6544 C   0  0  0  0  0  0  0  0  0  0  0  0
  -89.9669   27.4611    5.6809 F   0  0  0  0  0  0  0  0  0  0  0  0
  -89.2050   25.5728    4.6577 F   0  0  0  0  0  0  0  0  0  0  0  0
  -91.4173   25.9451    4.8696 F   0  0  0  0  0  0  0  0  0  0  0  0
 19 20  1  0  0  0
 20 21  1  0  0  0
 21 22  1  0  0  0
 22 23  1  0  0  0
 23 24  1  0  0  0
 24 25  1  0  0  0
 23 17  1  0  0  0
 17  1  1  0  0  0
  1  2  2  0  0  0
  2  3  1  0  0  0
  3 26  1  0  0  0
 26 28  1  0  0  0
 28 29  2  0  0  0
 29 30  1  0  0  0
 30 31  2  0  0  0
 31 32  1  0  0  0
 32 33  2  0  0  0
 31 34  1  0  0  0
 34 35  1  0  0  0
 34 36  1  0  0  0
 34 37  1  0  0  0
  3  4  2  0  0  0
  4  5  1  0  0  0
  5  6  2  0  0  0
  5  7  1  0  0  0
  7  8  2  0  0  0
  8  9  1  0  0  0
  9 10  2  0  0  0
 10 11  1  0  0  0
 11 12  2  0  0  0
 10 13  1  0  0  0
 13 14  1  0  0  0
 13 15  1  0  0  0
 13 16  1  0  0  0
 25 20  1  0  0  0
  6  1  1  0  0  0
 12  7  1  0  0  0
 33 28  1  0  0  0
 17 18  1  0  0  0
 26 27  1  0  0  0
M  END
> <minimizedAffinity>
-9.54839

> <CNNscore>
0.0838661045

> <CNNaffinity>
6.5120229721

> <CNN_VS>
0.5461379886

> <CNNaffinity_variance>
0.4012241960

$$$$
[H]c1c([H])c(C(F)(F)F)c([H])c([H])c1-c1nc(N([H])c2c([H])c([H])c(C(F)(F)F)c([H])c2[H])nc(N([H])[C@]2([H])C([H])([H])C([H])([H])[C@]([H])(C([H])([H])[H])C([H])([H])C2([H])[H])n1


 37 40  0  0  0  0  0  0  0  0999 V2000
  -86.7678   33.1518   -0.9691 C   0  0  0  0  0  0  0  0  0  0  0  0
  -87.9820   32.4743   -0.8682 N   0  0  0  0  0  0  0  0  0  0  0  0
  -89.0425   32.7394   -1.6029 C   0  0  0  0  0  0  0  0  0  0  0  0
  -88.9222   33.7304   -2.5082 N   0  0  0  0  0  0  0  0  0  0  0  0
  -87.7486   34.4548   -2.6805 C   0  0  0  0  0  0  0  0  0  0  0  0
  -86.7364   34.1353   -1.9076 N   0  0  0  0  0  0  0  0  0  0  0  0
  -87.8865   35.4427   -3.7449 C   0  0  0  0  0  0  0  0  0  0  0  0
  -88.8802   36.3873   -3.6036 C   0  0  0  0  0  0  0  0  0  0  0  0
  -89.3047   37.1819   -4.6363 C   0  0  0  0  0  0  0  0  0  0  0  0
  -88.7184   37.0281   -5.8691 C   0  0  0  0  0  0  0  0  0  0  0  0
  -87.7356   36.1152   -6.0294 C   0  0  0  0  0  0  0  0  0  0  0  0
  -87.2893   35.2938   -4.9752 C   0  0  0  0  0  0  0  0  0  0  0  0
  -89.2611   37.8543   -6.9944 C   0  0  0  0  0  0  0  0  0  0  0  0
  -89.2862   37.0796   -8.1637 F   0  0  0  0  0  0  0  0  0  0  0  0
  -88.3851   38.9071   -7.2415 F   0  0  0  0  0  0  0  0  0  0  0  0
  -90.5410   38.2867   -6.7602 F   0  0  0  0  0  0  0  0  0  0  0  0
  -85.7525   32.7227   -0.1226 N   0  0  0  0  0  0  0  0  0  0  0  0
  -85.4101   33.5726    0.5397 H   0  0  0  0  0  0  0  0  0  0  0  0
  -84.2034   28.5959    2.9607 C   0  0  0  0  0  0  0  0  0  0  0  0
  -83.9746   29.1513    1.5546 C   0  0  0  0  0  0  0  0  0  0  0  0
  -83.4461   30.5375    1.7251 C   0  0  0  0  0  0  0  0  0  0  0  0
  -84.6068   31.5396    1.6382 C   0  0  0  0  0  0  0  0  0  0  0  0
  -85.0678   31.5417    0.1751 C   0  0  0  0  0  0  0  0  0  0  0  0
  -85.5191   30.2131   -0.1685 C   0  0  0  0  0  0  0  0  0  0  0  0
  -85.3027   29.1076    0.8473 C   0  0  0  0  0  0  0  0  0  0  0  0
  -90.2661   32.0035   -1.5734 N   0  0  0  0  0  0  0  0  0  0  0  0
  -91.1276   32.5840   -1.3094 H   0  0  0  0  0  0  0  0  0  0  0  0
  -90.4821   30.6722   -1.8354 C   0  0  0  0  0  0  0  0  0  0  0  0
  -91.1163   30.3501   -3.0298 C   0  0  0  0  0  0  0  0  0  0  0  0
  -91.4524   29.0346   -3.3422 C   0  0  0  0  0  0  0  0  0  0  0  0
  -91.1250   28.0664   -2.4300 C   0  0  0  0  0  0  0  0  0  0  0  0
  -90.4897   28.3435   -1.2275 C   0  0  0  0  0  0  0  0  0  0  0  0
  -90.1718   29.6820   -0.9460 C   0  0  0  0  0  0  0  0  0  0  0  0
  -91.4816   26.6794   -2.7605 C   0  0  0  0  0  0  0  0  0  0  0  0
  -90.3210   25.9772   -3.0236 F   0  0  0  0  0  0  0  0  0  0  0  0
  -92.3392   26.6241   -3.8612 F   0  0  0  0  0  0  0  0  0  0  0  0
  -92.1270   26.0750   -1.6861 F   0  0  0  0  0  0  0  0  0  0  0  0
 19 20  1  0  0  0
 20 21  1  0  0  0
 21 22  1  0  0  0
 22 23  1  0  0  0
 23 24  1  0  0  0
 24 25  1  0  0  0
 23 17  1  0  0  0
 17  1  1  0  0  0
  1  2  2  0  0  0
  2  3  1  0  0  0
  3 26  1  0  0  0
 26 28  1  0  0  0
 28 29  2  0  0  0
 29 30  1  0  0  0
 30 31  2  0  0  0
 31 32  1  0  0  0
 32 33  2  0  0  0
 31 34  1  0  0  0
 34 35  1  0  0  0
 34 36  1  0  0  0
 34 37  1  0  0  0
  3  4  2  0  0  0
  4  5  1  0  0  0
  5  6  2  0  0  0
  5  7  1  0  0  0
  7  8  2  0  0  0
  8  9  1  0  0  0
  9 10  2  0  0  0
 10 11  1  0  0  0
 11 12  2  0  0  0
 10 13  1  0  0  0
 13 14  1  0  0  0
 13 15  1  0  0  0
 13 16  1  0  0  0
 25 20  1  0  0  0
  6  1  1  0  0  0
 12  7  1  0  0  0
 33 28  1  0  0  0
 17 18  1  0  0  0
 26 27  1  0  0  0
M  END
> <minimizedAffinity>
-8.66487

> <CNNscore>
0.0701723918

> <CNNaffinity>
6.2501044273

> <CNN_VS>
0.4385847747

> <CNNaffinity_variance>
0.4676968455

$$$$
[H]c1c([H])c(C(F)(F)F)c([H])c([H])c1-c1nc(N([H])c2c([H])c([H])c(C(F)(F)F)c([H])c2[H])nc(N([H])[C@]2([H])C([H])([H])C([H])([H])[C@]([H])(C([H])([H])[H])C([H])([H])C2([H])[H])n1


 37 40  0  0  0  0  0  0  0  0999 V2000
  -87.8751   28.2049   -0.5966 C   0  0  0  0  0  0  0  0  0  0  0  0
  -88.2459   29.2287   -1.4671 N   0  0  0  0  0  0  0  0  0  0  0  0
  -89.0941   29.0836   -2.4642 C   0  0  0  0  0  0  0  0  0  0  0  0
  -89.6302   27.8586   -2.6325 N   0  0  0  0  0  0  0  0  0  0  0  0
  -89.3216   26.7819   -1.8095 C   0  0  0  0  0  0  0  0  0  0  0  0
  -88.4641   27.0038   -0.8403 N   0  0  0  0  0  0  0  0  0  0  0  0
  -90.0650   25.5881   -2.1970 C   0  0  0  0  0  0  0  0  0  0  0  0
  -91.2719   25.7764   -2.8355 C   0  0  0  0  0  0  0  0  0  0  0  0
  -92.1937   24.7751   -2.9960 C   0  0  0  0  0  0  0  0  0  0  0  0
  -91.9060   23.5290   -2.4944 C   0  0  0  0  0  0  0  0  0  0  0  0
  -90.7252   23.3181   -1.8731 C   0  0  0  0  0  0  0  0  0  0  0  0
  -89.7686   24.3387   -1.7036 C   0  0  0  0  0  0  0  0  0  0  0  0
  -92.9678   22.4795   -2.6147 C   0  0  0  0  0  0  0  0  0  0  0  0
  -94.2285   23.0936   -2.5737 F   0  0  0  0  0  0  0  0  0  0  0  0
  -92.9027   21.6454   -1.5026 F   0  0  0  0  0  0  0  0  0  0  0  0
  -92.8882   21.7827   -3.7929 F   0  0  0  0  0  0  0  0  0  0  0  0
  -86.9793   28.5478    0.4091 N   0  0  0  0  0  0  0  0  0  0  0  0
  -86.7865   27.6591    1.0809 H   0  0  0  0  0  0  0  0  0  0  0  0
  -82.6563   31.7482    0.4893 C   0  0  0  0  0  0  0  0  0  0  0  0
  -84.0398   31.6407    1.1315 C   0  0  0  0  0  0  0  0  0  0  0  0
  -84.0862   30.3187    1.8243 C   0  0  0  0  0  0  0  0  0  0  0  0
  -84.7346   29.2801    0.8971 C   0  0  0  0  0  0  0  0  0  0  0  0
  -86.2195   29.6528    0.8014 C   0  0  0  0  0  0  0  0  0  0  0  0
  -86.3274   30.9765    0.2328 C   0  0  0  0  0  0  0  0  0  0  0  0
  -85.0471   31.7613    0.0193 C   0  0  0  0  0  0  0  0  0  0  0  0
  -89.5502   30.1372   -3.3136 N   0  0  0  0  0  0  0  0  0  0  0  0
  -90.2964   29.8434   -4.0246 H   0  0  0  0  0  0  0  0  0  0  0  0
  -89.1665   31.4562   -3.3389 C   0  0  0  0  0  0  0  0  0  0  0  0
  -88.2660   31.8416   -4.3254 C   0  0  0  0  0  0  0  0  0  0  0  0
  -87.7561   33.1371   -4.3778 C   0  0  0  0  0  0  0  0  0  0  0  0
  -88.1839   34.0222   -3.4236 C   0  0  0  0  0  0  0  0  0  0  0  0
  -89.0832   33.6805   -2.4233 C   0  0  0  0  0  0  0  0  0  0  0  0
  -89.5709   32.3637   -2.4005 C   0  0  0  0  0  0  0  0  0  0  0  0
  -87.6439   35.3880   -3.4795 C   0  0  0  0  0  0  0  0  0  0  0  0
  -86.7257   35.5406   -2.4584 F   0  0  0  0  0  0  0  0  0  0  0  0
  -88.6585   36.3404   -3.3625 F   0  0  0  0  0  0  0  0  0  0  0  0
  -86.9941   35.6038   -4.6909 F   0  0  0  0  0  0  0  0  0  0  0  0
 19 20  1  0  0  0
 20 21  1  0  0  0
 21 22  1  0  0  0
 22 23  1  0  0  0
 23 24  1  0  0  0
 24 25  1  0  0  0
 23 17  1  0  0  0
 17  1  1  0  0  0
  1  2  2  0  0  0
  2  3  1  0  0  0
  3 26  1  0  0  0
 26 28  1  0  0  0
 28 29  2  0  0  0
 29 30  1  0  0  0
 30 31  2  0  0  0
 31 32  1  0  0  0
 32 33  2  0  0  0
 31 34  1  0  0  0
 34 35  1  0  0  0
 34 36  1  0  0  0
 34 37  1  0  0  0
  3  4  2  0  0  0
  4  5  1  0  0  0
  5  6  2  0  0  0
  5  7  1  0  0  0
  7  8  2  0  0  0
  8  9  1  0  0  0
  9 10  2  0  0  0
 10 11  1  0  0  0
 11 12  2  0  0  0
 10 13  1  0  0  0
 13 14  1  0  0  0
 13 15  1  0  0  0
 13 16  1  0  0  0
 25 20  1  0  0  0
  6  1  1  0  0  0
 12  7  1  0  0  0
 33 28  1  0  0  0
 17 18  1  0  0  0
 26 27  1  0  0  0
M  END
> <minimizedAffinity>
-8.99973

> <CNNscore>
0.0334109068

> <CNNaffinity>
6.0419187546

> <CNN_VS>
0.2018659860

> <CNNaffinity_variance>
0.4129373431

$$$$
[H]c1c([H])c(C(F)(F)F)c([H])c([H])c1-c1nc(N([H])c2c([H])c([H])c(C(F)(F)F)c([H])c2[H])nc(N([H])[C@]2([H])C([H])([H])C([H])([H])[C@]([H])(C([H])([H])[H])C([H])([H])C2([H])[H])n1


 37 40  0  0  0  0  0  0  0  0999 V2000
  -86.5959   33.3022   -1.8754 C   0  0  0  0  0  0  0  0  0  0  0  0
  -87.0179   31.9790   -1.9956 N   0  0  0  0  0  0  0  0  0  0  0  0
  -87.7393   31.5187   -2.9968 C   0  0  0  0  0  0  0  0  0  0  0  0
  -88.0756   32.4002   -3.9591 N   0  0  0  0  0  0  0  0  0  0  0  0
  -87.6942   33.7363   -3.9233 C   0  0  0  0  0  0  0  0  0  0  0  0
  -86.9804   34.1210   -2.8906 N   0  0  0  0  0  0  0  0  0  0  0  0
  -88.1663   34.4544   -5.1021 C   0  0  0  0  0  0  0  0  0  0  0  0
  -87.4471   35.5626   -5.4952 C   0  0  0  0  0  0  0  0  0  0  0  0
  -87.9266   36.4820   -6.3913 C   0  0  0  0  0  0  0  0  0  0  0  0
  -89.1814   36.2952   -6.9183 C   0  0  0  0  0  0  0  0  0  0  0  0
  -89.9011   35.2113   -6.5551 C   0  0  0  0  0  0  0  0  0  0  0  0
  -89.4186   34.2581   -5.6363 C   0  0  0  0  0  0  0  0  0  0  0  0
  -89.7071   37.3599   -7.8311 C   0  0  0  0  0  0  0  0  0  0  0  0
  -90.3939   38.3191   -7.0719 F   0  0  0  0  0  0  0  0  0  0  0  0
  -90.6464   36.7934   -8.6877 F   0  0  0  0  0  0  0  0  0  0  0  0
  -88.7096   38.0107   -8.5104 F   0  0  0  0  0  0  0  0  0  0  0  0
  -85.8265   33.6026   -0.7577 N   0  0  0  0  0  0  0  0  0  0  0  0
  -86.1375   34.5999   -0.3254 H   0  0  0  0  0  0  0  0  0  0  0  0
  -83.2114   29.5487    1.6223 C   0  0  0  0  0  0  0  0  0  0  0  0
  -83.1179   31.0674    1.4704 C   0  0  0  0  0  0  0  0  0  0  0  0
  -84.3994   31.6274    1.9938 C   0  0  0  0  0  0  0  0  0  0  0  0
  -85.3752   31.8430    0.8274 C   0  0  0  0  0  0  0  0  0  0  0  0
  -84.8168   33.0125    0.0068 C   0  0  0  0  0  0  0  0  0  0  0  0
  -83.5096   32.6467   -0.4878 C   0  0  0  0  0  0  0  0  0  0  0  0
  -82.9045   31.3467    0.0066 C   0  0  0  0  0  0  0  0  0  0  0  0
  -88.1101   30.1518   -3.1808 N   0  0  0  0  0  0  0  0  0  0  0  0
  -88.4457   29.9116   -4.1700 H   0  0  0  0  0  0  0  0  0  0  0  0
  -88.0928   29.1206   -2.2732 C   0  0  0  0  0  0  0  0  0  0  0  0
  -89.2236   28.3154   -2.1983 C   0  0  0  0  0  0  0  0  0  0  0  0
  -89.3306   27.2991   -1.2512 C   0  0  0  0  0  0  0  0  0  0  0  0
  -88.2726   27.1164   -0.4003 C   0  0  0  0  0  0  0  0  0  0  0  0
  -87.1245   27.8950   -0.4421 C   0  0  0  0  0  0  0  0  0  0  0  0
  -87.0562   28.9128   -1.4072 C   0  0  0  0  0  0  0  0  0  0  0  0
  -88.3877   26.0448    0.5991 C   0  0  0  0  0  0  0  0  0  0  0  0
  -89.4391   26.3426    1.4448 F   0  0  0  0  0  0  0  0  0  0  0  0
  -87.2061   25.9026    1.3296 F   0  0  0  0  0  0  0  0  0  0  0  0
  -88.6542   24.8285   -0.0220 F   0  0  0  0  0  0  0  0  0  0  0  0
 19 20  1  0  0  0
 20 21  1  0  0  0
 21 22  1  0  0  0
 22 23  1  0  0  0
 23 24  1  0  0  0
 24 25  1  0  0  0
 23 17  1  0  0  0
 17  1  1  0  0  0
  1  2  2  0  0  0
  2  3  1  0  0  0
  3 26  1  0  0  0
 26 28  1  0  0  0
 28 29  2  0  0  0
 29 30  1  0  0  0
 30 31  2  0  0  0
 31 32  1  0  0  0
 32 33  2  0  0  0
 31 34  1  0  0  0
 34 35  1  0  0  0
 34 36  1  0  0  0
 34 37  1  0  0  0
  3  4  2  0  0  0
  4  5  1  0  0  0
  5  6  2  0  0  0
  5  7  1  0  0  0
  7  8  2  0  0  0
  8  9  1  0  0  0
  9 10  2  0  0  0
 10 11  1  0  0  0
 11 12  2  0  0  0
 10 13  1  0  0  0
 13 14  1  0  0  0
 13 15  1  0  0  0
 13 16  1  0  0  0
 25 20  1  0  0  0
  6  1  1  0  0  0
 12  7  1  0  0  0
 33 28  1  0  0  0
 17 18  1  0  0  0
 26 27  1  0  0  0
M  END
> <minimizedAffinity>
-9.58569

> <CNNscore>
0.0293057021

> <CNNaffinity>
6.0871596336

> <CNN_VS>
0.1783884913

> <CNNaffinity_variance>
0.5999880433

$$$$
[H]c1c([H])c(C(F)(F)F)c([H])c([H])c1-c1nc(N([H])c2c([H])c([H])c(C(F)(F)F)c([H])c2[H])nc(N([H])[C@]2([H])C([H])([H])C([H])([H])[C@]([H])(C([H])([H])[H])C([H])([H])C2([H])[H])n1


 37 40  0  0  0  0  0  0  0  0999 V2000
  -86.5381   32.3508   -0.9112 C   0  0  0  0  0  0  0  0  0  0  0  0
  -87.6124   31.5143   -0.6119 N   0  0  0  0  0  0  0  0  0  0  0  0
  -88.8461   31.7138   -1.0278 C   0  0  0  0  0  0  0  0  0  0  0  0
  -89.0602   32.8005   -1.7956 N   0  0  0  0  0  0  0  0  0  0  0  0
  -88.0478   33.6854   -2.1474 C   0  0  0  0  0  0  0  0  0  0  0  0
  -86.8454   33.4219   -1.6904 N   0  0  0  0  0  0  0  0  0  0  0  0
  -88.5504   34.7520   -3.0064 C   0  0  0  0  0  0  0  0  0  0  0  0
  -87.7973   35.9035   -3.0880 C   0  0  0  0  0  0  0  0  0  0  0  0
  -88.2793   37.0727   -3.6161 C   0  0  0  0  0  0  0  0  0  0  0  0
  -89.5718   37.1016   -4.0806 C   0  0  0  0  0  0  0  0  0  0  0  0
  -90.3260   35.9824   -4.0197 C   0  0  0  0  0  0  0  0  0  0  0  0
  -89.8414   34.7740   -3.4809 C   0  0  0  0  0  0  0  0  0  0  0  0
  -90.0932   38.4153   -4.5760 C   0  0  0  0  0  0  0  0  0  0  0  0
  -91.2527   38.1940   -5.3341 F   0  0  0  0  0  0  0  0  0  0  0  0
  -89.1582   38.9708   -5.4443 F   0  0  0  0  0  0  0  0  0  0  0  0
  -90.4261   39.2682   -3.5553 F   0  0  0  0  0  0  0  0  0  0  0  0
  -85.3031   31.9720   -0.3987 N   0  0  0  0  0  0  0  0  0  0  0  0
  -84.4720   32.3294   -1.0768 H   0  0  0  0  0  0  0  0  0  0  0  0
  -83.6160   27.7533    2.4811 C   0  0  0  0  0  0  0  0  0  0  0  0
  -83.8111   29.2627    2.6283 C   0  0  0  0  0  0  0  0  0  0  0  0
  -85.2532   29.5346    2.3518 C   0  0  0  0  0  0  0  0  0  0  0  0
  -85.4236   29.9301    0.8775 C   0  0  0  0  0  0  0  0  0  0  0  0
  -84.7927   31.3201    0.7268 C   0  0  0  0  0  0  0  0  0  0  0  0
  -83.3918   31.2307    1.0683 C   0  0  0  0  0  0  0  0  0  0  0  0
  -82.8853   29.9202    1.6400 C   0  0  0  0  0  0  0  0  0  0  0  0
  -89.9418   30.8259   -0.8027 N   0  0  0  0  0  0  0  0  0  0  0  0
  -90.8470   31.3072   -0.4904 H   0  0  0  0  0  0  0  0  0  0  0  0
  -89.9889   29.4589   -0.9325 C   0  0  0  0  0  0  0  0  0  0  0  0
  -90.3693   28.7231    0.1840 C   0  0  0  0  0  0  0  0  0  0  0  0
  -90.3650   27.3300    0.1721 C   0  0  0  0  0  0  0  0  0  0  0  0
  -89.9800   26.7105   -0.9876 C   0  0  0  0  0  0  0  0  0  0  0  0
  -89.5955   27.4059   -2.1254 C   0  0  0  0  0  0  0  0  0  0  0  0
  -89.6078   28.8092   -2.0729 C   0  0  0  0  0  0  0  0  0  0  0  0
  -89.9747   25.2408   -0.9979 C   0  0  0  0  0  0  0  0  0  0  0  0
  -89.3143   24.7948    0.1309 F   0  0  0  0  0  0  0  0  0  0  0  0
  -89.3564   24.7432   -2.1470 F   0  0  0  0  0  0  0  0  0  0  0  0
  -91.2767   24.7505   -0.9679 F   0  0  0  0  0  0  0  0  0  0  0  0
 19 20  1  0  0  0
 20 21  1  0  0  0
 21 22  1  0  0  0
 22 23  1  0  0  0
 23 24  1  0  0  0
 24 25  1  0  0  0
 23 17  1  0  0  0
 17  1  1  0  0  0
  1  2  2  0  0  0
  2  3  1  0  0  0
  3 26  1  0  0  0
 26 28  1  0  0  0
 28 29  2  0  0  0
 29 30  1  0  0  0
 30 31  2  0  0  0
 31 32  1  0  0  0
 32 33  2  0  0  0
 31 34  1  0  0  0
 34 35  1  0  0  0
 34 36  1  0  0  0
 34 37  1  0  0  0
  3  4  2  0  0  0
  4  5  1  0  0  0
  5  6  2  0  0  0
  5  7  1  0  0  0
  7  8  2  0  0  0
  8  9  1  0  0  0
  9 10  2  0  0  0
 10 11  1  0  0  0
 11 12  2  0  0  0
 10 13  1  0  0  0
 13 14  1  0  0  0
 13 15  1  0  0  0
 13 16  1  0  0  0
 25 20  1  0  0  0
  6  1  1  0  0  0
 12  7  1  0  0  0
 33 28  1  0  0  0
 17 18  1  0  0  0
 26 27  1  0  0  0
M  END
> <minimizedAffinity>
-9.20127

> <CNNscore>
0.0282240342

> <CNNaffinity>
6.2191419601

> <CNN_VS>
0.1755292714

> <CNNaffinity_variance>
0.5713601708

$$$$
[H]N=C(c1c([H])c([H])c([C@]([H])(N=NN=C(c2c([H])c([H])nc([H])c2[H])c2c([H])c([H])c(S(=O)(=O)N([H])[H])c([H])c2[H])C([H])([H])O[H])c([H])c1[H])N([H])[H]


 38 40  0  0  0  0  0  0  0  0999 V2000
  -88.9887   30.6652   -1.4481 C   0  0  0  0  0  0  0  0  0  0  0  0
  -89.6505   31.6361   -1.9184 N   0  0  0  0  0  0  0  0  0  0  0  0
  -85.3266   31.1884    0.6295 C   0  0  0  0  0  0  0  0  0  0  0  0
  -85.7749   32.1376   -0.2455 C   0  0  0  0  0  0  0  0  0  0  0  0
  -86.9287   32.0018   -0.9798 C   0  0  0  0  0  0  0  0  0  0  0  0
  -87.7010   30.8582   -0.8499 C   0  0  0  0  0  0  0  0  0  0  0  0
  -87.2709   29.8645    0.0399 C   0  0  0  0  0  0  0  0  0  0  0  0
  -86.1152   30.0602    0.7382 C   0  0  0  0  0  0  0  0  0  0  0  0
  -82.7196   32.3999    0.7781 N   0  0  0  0  0  0  0  0  0  0  0  0
  -83.8603   31.3450    1.5707 S   0  0  0  0  0  0  0  0  0  0  0  0
  -83.2066   30.0059    1.6808 O   0  0  0  0  0  0  0  0  0  0  0  0
  -84.2364   31.8920    2.9142 O   0  0  0  0  0  0  0  0  0  0  0  0
  -83.0132   32.4148   -0.2357 H   0  0  0  0  0  0  0  0  0  0  0  0
  -82.9615   33.3710    1.1319 H   0  0  0  0  0  0  0  0  0  0  0  0
  -89.5944   29.3351   -1.5773 C   0  0  0  0  0  0  0  0  0  0  0  0
  -90.7658   29.0609   -0.8378 C   0  0  0  0  0  0  0  0  0  0  0  0
  -91.4055   27.8622   -0.9860 C   0  0  0  0  0  0  0  0  0  0  0  0
  -90.9596   26.9087   -1.8243 N   0  0  0  0  0  0  0  0  0  0  0  0
  -89.8550   27.1066   -2.5548 C   0  0  0  0  0  0  0  0  0  0  0  0
  -89.1969   28.3338   -2.4067 C   0  0  0  0  0  0  0  0  0  0  0  0
  -89.2920   32.9420   -1.9387 N   0  0  0  0  0  0  0  0  0  0  0  0
  -89.0275   33.5664   -3.0094 N   0  0  0  0  0  0  0  0  0  0  0  0
  -89.1049   32.8793   -4.2695 C   0  0  0  0  0  0  0  0  0  0  0  0
  -89.4019   33.8857   -5.3146 C   0  0  0  0  0  0  0  0  0  0  0  0
  -88.5762   34.9745   -5.4732 C   0  0  0  0  0  0  0  0  0  0  0  0
  -88.8302   35.9331   -6.4446 C   0  0  0  0  0  0  0  0  0  0  0  0
  -89.9102   35.8501   -7.2948 C   0  0  0  0  0  0  0  0  0  0  0  0
  -90.7328   34.7328   -7.1112 C   0  0  0  0  0  0  0  0  0  0  0  0
  -90.4883   33.7775   -6.1505 C   0  0  0  0  0  0  0  0  0  0  0  0
  -90.2081   36.8324   -8.3221 C   0  0  0  0  0  0  0  0  0  0  0  0
  -89.3946   37.9716   -8.4394 N   0  0  0  0  0  0  0  0  0  0  0  0
  -91.1986   36.6512   -9.1012 N   0  0  0  0  0  0  0  0  0  0  0  0
  -89.0134   38.2723   -9.3642 H   0  0  0  0  0  0  0  0  0  0  0  0
  -89.1403   38.5626   -7.5992 H   0  0  0  0  0  0  0  0  0  0  0  0
  -91.8695   35.8867   -9.1381 H   0  0  0  0  0  0  0  0  0  0  0  0
  -87.8467   32.0985   -4.5766 C   0  0  0  0  0  0  0  0  0  0  0  0
  -88.1638   30.8525   -5.0818 O   0  0  0  0  0  0  0  0  0  0  0  0
  -88.0460   30.1904   -4.3432 H   0  0  0  0  0  0  0  0  0  0  0  0
  9 10  1  0  0  0
 10 11  2  0  0  0
 10 12  2  0  0  0
 10  3  1  0  0  0
  3  4  2  0  0  0
  4  5  1  0  0  0
  5  6  2  0  0  0
  6  7  1  0  0  0
  7  8  2  0  0  0
  6  1  1  0  0  0
  1  2  2  0  0  0
  2 21  1  0  0  0
 21 22  2  0  0  0
 22 23  1  0  0  0
 23 36  1  0  0  0
 36 37  1  0  0  0
 23 24  1  0  0  0
 24 25  2  0  0  0
 25 26  1  0  0  0
 26 27  2  0  0  0
 27 28  1  0  0  0
 28 29  2  0  0  0
 27 30  1  0  0  0
 30 31  1  0  0  0
 30 32  2  0  0  0
  1 15  1  0  0  0
 15 16  2  0  0  0
 16 17  1  0  0  0
 17 18  2  0  0  0
 18 19  1  0  0  0
 19 20  2  0  0  0
  8  3  1  0  0  0
 29 24  1  0  0  0
 20 15  1  0  0  0
  9 13  1  0  0  0
  9 14  1  0  0  0
 37 38  1  0  0  0
 31 33  1  0  0  0
 31 34  1  0  0  0
 32 35  1  0  0  0
M  END
> <minimizedAffinity>
-7.89665

> <CNNscore>
0.2037416548

> <CNNaffinity>
5.8693084717

> <CNN_VS>
1.1958225965

> <CNNaffinity_variance>
0.1418152153

$$$$
[H]N=C(c1c([H])c([H])c([C@]([H])(N=NN=C(c2c([H])c([H])nc([H])c2[H])c2c([H])c([H])c(S(=O)(=O)N([H])[H])c([H])c2[H])C([H])([H])O[H])c([H])c1[H])N([H])[H]


 38 40  0  0  0  0  0  0  0  0999 V2000
  -88.5172   29.0962   -1.1393 C   0  0  0  0  0  0  0  0  0  0  0  0
  -88.8142   28.9058   -2.3547 N   0  0  0  0  0  0  0  0  0  0  0  0
  -84.9739   30.9573    0.2687 C   0  0  0  0  0  0  0  0  0  0  0  0
  -86.0581   31.7051   -0.0962 C   0  0  0  0  0  0  0  0  0  0  0  0
  -87.2143   31.1608   -0.6018 C   0  0  0  0  0  0  0  0  0  0  0  0
  -87.3206   29.7881   -0.7615 C   0  0  0  0  0  0  0  0  0  0  0  0
  -86.2275   28.9908   -0.3961 C   0  0  0  0  0  0  0  0  0  0  0  0
  -85.1079   29.5936    0.0983 C   0  0  0  0  0  0  0  0  0  0  0  0
  -82.8971   32.9141   -0.1105 N   0  0  0  0  0  0  0  0  0  0  0  0
  -83.4949   31.6342    0.9125 S   0  0  0  0  0  0  0  0  0  0  0  0
  -82.4433   30.5729    0.9364 O   0  0  0  0  0  0  0  0  0  0  0  0
  -83.7910   32.1543    2.2864 O   0  0  0  0  0  0  0  0  0  0  0  0
  -83.3477   32.7512   -1.0511 H   0  0  0  0  0  0  0  0  0  0  0  0
  -83.3694   33.7919    0.2542 H   0  0  0  0  0  0  0  0  0  0  0  0
  -89.4435   28.5447   -0.1439 C   0  0  0  0  0  0  0  0  0  0  0  0
  -89.4186   27.1525    0.0913 C   0  0  0  0  0  0  0  0  0  0  0  0
  -90.2100   26.6068    1.0630 C   0  0  0  0  0  0  0  0  0  0  0  0
  -91.0313   27.3534    1.8238 N   0  0  0  0  0  0  0  0  0  0  0  0
  -91.1011   28.6794    1.6517 C   0  0  0  0  0  0  0  0  0  0  0  0
  -90.2912   29.2427    0.6578 C   0  0  0  0  0  0  0  0  0  0  0  0
  -88.1094   29.2952   -3.4436 N   0  0  0  0  0  0  0  0  0  0  0  0
  -88.3590   30.3629   -4.0793 N   0  0  0  0  0  0  0  0  0  0  0  0
  -89.4325   31.2137   -3.6440 C   0  0  0  0  0  0  0  0  0  0  0  0
  -88.9501   32.6127   -3.6994 C   0  0  0  0  0  0  0  0  0  0  0  0
  -87.6030   32.8704   -3.8072 C   0  0  0  0  0  0  0  0  0  0  0  0
  -87.1228   34.1717   -3.8614 C   0  0  0  0  0  0  0  0  0  0  0  0
  -87.9570   35.2661   -3.8109 C   0  0  0  0  0  0  0  0  0  0  0  0
  -89.3215   34.9747   -3.7013 C   0  0  0  0  0  0  0  0  0  0  0  0
  -89.8064   33.6874   -3.6469 C   0  0  0  0  0  0  0  0  0  0  0  0
  -87.4919   36.6407   -3.8650 C   0  0  0  0  0  0  0  0  0  0  0  0
  -86.3883   36.9610   -4.6729 N   0  0  0  0  0  0  0  0  0  0  0  0
  -88.0865   37.5362   -3.1826 N   0  0  0  0  0  0  0  0  0  0  0  0
  -86.4176   37.7682   -5.3351 H   0  0  0  0  0  0  0  0  0  0  0  0
  -85.4925   36.3986   -4.6396 H   0  0  0  0  0  0  0  0  0  0  0  0
  -88.8880   37.4585   -2.5600 H   0  0  0  0  0  0  0  0  0  0  0  0
  -90.6901   31.0156   -4.4602 C   0  0  0  0  0  0  0  0  0  0  0  0
  -91.0799   29.6907   -4.4313 O   0  0  0  0  0  0  0  0  0  0  0  0
  -90.8016   29.2770   -5.2967 H   0  0  0  0  0  0  0  0  0  0  0  0
  9 10  1  0  0  0
 10 11  2  0  0  0
 10 12  2  0  0  0
 10  3  1  0  0  0
  3  4  2  0  0  0
  4  5  1  0  0  0
  5  6  2  0  0  0
  6  7  1  0  0  0
  7  8  2  0  0  0
  6  1  1  0  0  0
  1  2  2  0  0  0
  2 21  1  0  0  0
 21 22  2  0  0  0
 22 23  1  0  0  0
 23 36  1  0  0  0
 36 37  1  0  0  0
 23 24  1  0  0  0
 24 25  2  0  0  0
 25 26  1  0  0  0
 26 27  2  0  0  0
 27 28  1  0  0  0
 28 29  2  0  0  0
 27 30  1  0  0  0
 30 31  1  0  0  0
 30 32  2  0  0  0
  1 15  1  0  0  0
 15 16  2  0  0  0
 16 17  1  0  0  0
 17 18  2  0  0  0
 18 19  1  0  0  0
 19 20  2  0  0  0
  8  3  1  0  0  0
 29 24  1  0  0  0
 20 15  1  0  0  0
  9 13  1  0  0  0
  9 14  1  0  0  0
 37 38  1  0  0  0
 31 33  1  0  0  0
 31 34  1  0  0  0
 32 35  1  0  0  0
M  END
> <minimizedAffinity>
-8.83145

> <CNNscore>
0.1421939135

> <CNNaffinity>
6.1049389839

> <CNN_VS>
0.8680851460

> <CNNaffinity_variance>
0.2742277980

$$$$
[H]N=C(c1c([H])c([H])c([C@]([H])(N=NN=C(c2c([H])c([H])nc([H])c2[H])c2c([H])c([H])c(S(=O)(=O)N([H])[H])c([H])c2[H])C([H])([H])O[H])c([H])c1[H])N([H])[H]


 38 40  0  0  0  0  0  0  0  0999 V2000
  -88.6092   28.3935    0.2291 C   0  0  0  0  0  0  0  0  0  0  0  0
  -89.0463   27.7213   -0.7501 N   0  0  0  0  0  0  0  0  0  0  0  0
  -85.1279   30.8178    0.1592 C   0  0  0  0  0  0  0  0  0  0  0  0
  -86.3608   31.3592   -0.0741 C   0  0  0  0  0  0  0  0  0  0  0  0
  -87.5166   30.6163   -0.1096 C   0  0  0  0  0  0  0  0  0  0  0  0
  -87.4655   29.2470    0.0990 C   0  0  0  0  0  0  0  0  0  0  0  0
  -86.2169   28.6588    0.3422 C   0  0  0  0  0  0  0  0  0  0  0  0
  -85.1072   29.4523    0.3629 C   0  0  0  0  0  0  0  0  0  0  0  0
  -83.2626   32.2266    1.8391 N   0  0  0  0  0  0  0  0  0  0  0  0
  -83.6475   31.7487    0.2064 S   0  0  0  0  0  0  0  0  0  0  0  0
  -83.8371   33.0057   -0.5788 O   0  0  0  0  0  0  0  0  0  0  0  0
  -82.5542   30.8968   -0.3635 O   0  0  0  0  0  0  0  0  0  0  0  0
  -84.1733   32.1629    2.3691 H   0  0  0  0  0  0  0  0  0  0  0  0
  -82.6828   31.4250    2.2237 H   0  0  0  0  0  0  0  0  0  0  0  0
  -89.3139   28.2272    1.5052 C   0  0  0  0  0  0  0  0  0  0  0  0
  -90.5496   28.8891    1.6761 C   0  0  0  0  0  0  0  0  0  0  0  0
  -91.2760   28.7014    2.8186 C   0  0  0  0  0  0  0  0  0  0  0  0
  -90.8575   27.8955    3.8117 N   0  0  0  0  0  0  0  0  0  0  0  0
  -89.6952   27.2384    3.7112 C   0  0  0  0  0  0  0  0  0  0  0  0
  -88.9482   27.4272    2.5419 C   0  0  0  0  0  0  0  0  0  0  0  0
  -88.5523   27.6892   -2.0107 N   0  0  0  0  0  0  0  0  0  0  0  0
  -88.9754   28.4460   -2.9352 N   0  0  0  0  0  0  0  0  0  0  0  0
  -90.0249   29.3878   -2.6570 C   0  0  0  0  0  0  0  0  0  0  0  0
  -89.4756   30.7481   -2.8591 C   0  0  0  0  0  0  0  0  0  0  0  0
  -88.4311   30.9436   -3.7328 C   0  0  0  0  0  0  0  0  0  0  0  0
  -87.8967   32.2076   -3.9419 C   0  0  0  0  0  0  0  0  0  0  0  0
  -88.3754   33.3246   -3.2945 C   0  0  0  0  0  0  0  0  0  0  0  0
  -89.4374   33.0966   -2.4121 C   0  0  0  0  0  0  0  0  0  0  0  0
  -89.9735   31.8466   -2.1987 C   0  0  0  0  0  0  0  0  0  0  0  0
  -87.8424   34.6617   -3.4874 C   0  0  0  0  0  0  0  0  0  0  0  0
  -86.5026   34.8168   -3.8801 N   0  0  0  0  0  0  0  0  0  0  0  0
  -88.5917   35.6737   -3.2991 N   0  0  0  0  0  0  0  0  0  0  0  0
  -86.2395   35.4442   -4.6727 H   0  0  0  0  0  0  0  0  0  0  0  0
  -85.7163   34.3062   -3.3894 H   0  0  0  0  0  0  0  0  0  0  0  0
  -89.5686   35.7199   -3.0172 H   0  0  0  0  0  0  0  0  0  0  0  0
  -91.2555   29.1429   -3.5013 C   0  0  0  0  0  0  0  0  0  0  0  0
  -92.4003   29.3740   -2.7633 O   0  0  0  0  0  0  0  0  0  0  0  0
  -92.7663   28.4854   -2.4912 H   0  0  0  0  0  0  0  0  0  0  0  0
  9 10  1  0  0  0
 10 11  2  0  0  0
 10 12  2  0  0  0
 10  3  1  0  0  0
  3  4  2  0  0  0
  4  5  1  0  0  0
  5  6  2  0  0  0
  6  7  1  0  0  0
  7  8  2  0  0  0
  6  1  1  0  0  0
  1  2  2  0  0  0
  2 21  1  0  0  0
 21 22  2  0  0  0
 22 23  1  0  0  0
 23 36  1  0  0  0
 36 37  1  0  0  0
 23 24  1  0  0  0
 24 25  2  0  0  0
 25 26  1  0  0  0
 26 27  2  0  0  0
 27 28  1  0  0  0
 28 29  2  0  0  0
 27 30  1  0  0  0
 30 31  1  0  0  0
 30 32  2  0  0  0
  1 15  1  0  0  0
 15 16  2  0  0  0
 16 17  1  0  0  0
 17 18  2  0  0  0
 18 19  1  0  0  0
 19 20  2  0  0  0
  8  3  1  0  0  0
 29 24  1  0  0  0
 20 15  1  0  0  0
  9 13  1  0  0  0
  9 14  1  0  0  0
 37 38  1  0  0  0
 31 33  1  0  0  0
 31 34  1  0  0  0
 32 35  1  0  0  0
M  END
> <minimizedAffinity>
-7.94446

> <CNNscore>
0.1324551702

> <CNNaffinity>
6.0678229332

> <CNN_VS>
0.8037145138

> <CNNaffinity_variance>
0.4685681462

$$$$
[H]N=C(c1c([H])c([H])c([C@]([H])(N=NN=C(c2c([H])c([H])nc([H])c2[H])c2c([H])c([H])c(S(=O)(=O)N([H])[H])c([H])c2[H])C([H])([H])O[H])c([H])c1[H])N([H])[H]


 38 40  0  0  0  0  0  0  0  0999 V2000
  -87.3688   32.1554   -1.4202 C   0  0  0  0  0  0  0  0  0  0  0  0
  -88.0618   31.2419   -0.8844 N   0  0  0  0  0  0  0  0  0  0  0  0
  -89.0936   34.2833   -4.6604 C   0  0  0  0  0  0  0  0  0  0  0  0
  -88.3111   33.1852   -4.8834 C   0  0  0  0  0  0  0  0  0  0  0  0
  -87.6897   32.4848   -3.8774 C   0  0  0  0  0  0  0  0  0  0  0  0
  -87.8441   32.8838   -2.5590 C   0  0  0  0  0  0  0  0  0  0  0  0
  -88.6411   34.0057   -2.2942 C   0  0  0  0  0  0  0  0  0  0  0  0
  -89.2291   34.6579   -3.3383 C   0  0  0  0  0  0  0  0  0  0  0  0
  -88.7756   36.2721   -6.7169 N   0  0  0  0  0  0  0  0  0  0  0  0
  -89.8904   35.1865   -5.9291 S   0  0  0  0  0  0  0  0  0  0  0  0
  -90.9636   36.0323   -5.3247 O   0  0  0  0  0  0  0  0  0  0  0  0
  -90.4466   34.2005   -6.9111 O   0  0  0  0  0  0  0  0  0  0  0  0
  -87.9842   36.4035   -6.0308 H   0  0  0  0  0  0  0  0  0  0  0  0
  -88.3472   35.6961   -7.4988 H   0  0  0  0  0  0  0  0  0  0  0  0
  -86.0466   32.4042   -0.8348 C   0  0  0  0  0  0  0  0  0  0  0  0
  -85.6329   31.5956    0.2465 C   0  0  0  0  0  0  0  0  0  0  0  0
  -84.3798   31.7422    0.7723 C   0  0  0  0  0  0  0  0  0  0  0  0
  -83.5015   32.6432    0.2954 N   0  0  0  0  0  0  0  0  0  0  0  0
  -83.8316   33.4397   -0.7290 C   0  0  0  0  0  0  0  0  0  0  0  0
  -85.1142   33.2923   -1.2714 C   0  0  0  0  0  0  0  0  0  0  0  0
  -89.2921   30.8171   -1.2585 N   0  0  0  0  0  0  0  0  0  0  0  0
  -89.6576   29.6066   -1.1730 N   0  0  0  0  0  0  0  0  0  0  0  0
  -88.7434   28.6236   -0.6594 C   0  0  0  0  0  0  0  0  0  0  0  0
  -89.2272   28.2131    0.6787 C   0  0  0  0  0  0  0  0  0  0  0  0
  -88.3405   27.7196    1.6075 C   0  0  0  0  0  0  0  0  0  0  0  0
  -88.7660   27.3275    2.8693 C   0  0  0  0  0  0  0  0  0  0  0  0
  -90.0842   27.4090    3.2590 C   0  0  0  0  0  0  0  0  0  0  0  0
  -90.9638   27.9143    2.2948 C   0  0  0  0  0  0  0  0  0  0  0  0
  -90.5505   28.3054    1.0412 C   0  0  0  0  0  0  0  0  0  0  0  0
  -90.5664   27.0088    4.5690 C   0  0  0  0  0  0  0  0  0  0  0  0
  -89.8580   27.4104    5.7137 N   0  0  0  0  0  0  0  0  0  0  0  0
  -91.6209   26.3018    4.6652 N   0  0  0  0  0  0  0  0  0  0  0  0
  -90.3466   27.8421    6.5296 H   0  0  0  0  0  0  0  0  0  0  0  0
  -88.8093   27.2903    5.7895 H   0  0  0  0  0  0  0  0  0  0  0  0
  -92.2329   25.9390    3.9374 H   0  0  0  0  0  0  0  0  0  0  0  0
  -88.5857   27.4430   -1.5913 C   0  0  0  0  0  0  0  0  0  0  0  0
  -88.8925   27.8079   -2.8879 O   0  0  0  0  0  0  0  0  0  0  0  0
  -89.8114   27.4697   -3.0853 H   0  0  0  0  0  0  0  0  0  0  0  0
  9 10  1  0  0  0
 10 11  2  0  0  0
 10 12  2  0  0  0
 10  3  1  0  0  0
  3  4  2  0  0  0
  4  5  1  0  0  0
  5  6  2  0  0  0
  6  7  1  0  0  0
  7  8  2  0  0  0
  6  1  1  0  0  0
  1  2  2  0  0  0
  2 21  1  0  0  0
 21 22  2  0  0  0
 22 23  1  0  0  0
 23 36  1  0  0  0
 36 37  1  0  0  0
 23 24  1  0  0  0
 24 25  2  0  0  0
 25 26  1  0  0  0
 26 27  2  0  0  0
 27 28  1  0  0  0
 28 29  2  0  0  0
 27 30  1  0  0  0
 30 31  1  0  0  0
 30 32  2  0  0  0
  1 15  1  0  0  0
 15 16  2  0  0  0
 16 17  1  0  0  0
 17 18  2  0  0  0
 18 19  1  0  0  0
 19 20  2  0  0  0
  8  3  1  0  0  0
 29 24  1  0  0  0
 20 15  1  0  0  0
  9 13  1  0  0  0
  9 14  1  0  0  0
 37 38  1  0  0  0
 31 33  1  0  0  0
 31 34  1  0  0  0
 32 35  1  0  0  0
M  END
> <minimizedAffinity>
-8.21580

> <CNNscore>
0.1175394580

> <CNNaffinity>
6.1400008202

> <CNN_VS>
0.7216923833

> <CNNaffinity_variance>
0.1769701540

$$$$
[H]N=C(c1c([H])c([H])c([C@]([H])(N=NN=C(c2c([H])c([H])nc([H])c2[H])c2c([H])c([H])c(S(=O)(=O)N([H])[H])c([H])c2[H])C([H])([H])O[H])c([H])c1[H])N([H])[H]


 38 40  0  0  0  0  0  0  0  0999 V2000
  -87.0669   31.6541   -0.7710 C   0  0  0  0  0  0  0  0  0  0  0  0
  -87.7809   30.7964   -0.1741 N   0  0  0  0  0  0  0  0  0  0  0  0
  -88.8410   33.7496   -4.0057 C   0  0  0  0  0  0  0  0  0  0  0  0
  -88.0125   32.6867   -4.2325 C   0  0  0  0  0  0  0  0  0  0  0  0
  -87.3743   31.9998   -3.2277 C   0  0  0  0  0  0  0  0  0  0  0  0
  -87.5589   32.3764   -1.9066 C   0  0  0  0  0  0  0  0  0  0  0  0
  -88.4033   33.4621   -1.6379 C   0  0  0  0  0  0  0  0  0  0  0  0
  -89.0059   34.1026   -2.6810 C   0  0  0  0  0  0  0  0  0  0  0  0
  -88.5439   35.6542   -6.1435 N   0  0  0  0  0  0  0  0  0  0  0  0
  -89.6599   34.6352   -5.2728 S   0  0  0  0  0  0  0  0  0  0  0  0
  -90.6787   35.5377   -4.6563 O   0  0  0  0  0  0  0  0  0  0  0  0
  -90.2885   33.6356   -6.1954 O   0  0  0  0  0  0  0  0  0  0  0  0
  -87.7207   35.7821   -5.4951 H   0  0  0  0  0  0  0  0  0  0  0  0
  -88.1675   35.0372   -6.9208 H   0  0  0  0  0  0  0  0  0  0  0  0
  -85.7049   31.8440   -0.2595 C   0  0  0  0  0  0  0  0  0  0  0  0
  -84.8975   32.8330   -0.8629 C   0  0  0  0  0  0  0  0  0  0  0  0
  -83.6504   33.0955   -0.3690 C   0  0  0  0  0  0  0  0  0  0  0  0
  -83.1448   32.4389    0.6912 N   0  0  0  0  0  0  0  0  0  0  0  0
  -83.8598   31.4903    1.3090 C   0  0  0  0  0  0  0  0  0  0  0  0
  -85.1385   31.2188    0.8068 C   0  0  0  0  0  0  0  0  0  0  0  0
  -89.0501   30.4316   -0.4739 N   0  0  0  0  0  0  0  0  0  0  0  0
  -89.3673   29.2486   -0.8001 N   0  0  0  0  0  0  0  0  0  0  0  0
  -88.3524   28.2328   -0.8613 C   0  0  0  0  0  0  0  0  0  0  0  0
  -88.9324   26.9824   -0.3199 C   0  0  0  0  0  0  0  0  0  0  0  0
  -89.4135   26.9507    0.9685 C   0  0  0  0  0  0  0  0  0  0  0  0
  -89.9626   25.7927    1.5019 C   0  0  0  0  0  0  0  0  0  0  0  0
  -90.0561   24.6234    0.7806 C   0  0  0  0  0  0  0  0  0  0  0  0
  -89.5593   24.6843   -0.5263 C   0  0  0  0  0  0  0  0  0  0  0  0
  -89.0132   25.8283   -1.0632 C   0  0  0  0  0  0  0  0  0  0  0  0
  -90.6236   23.3934    1.3042 C   0  0  0  0  0  0  0  0  0  0  0  0
  -91.8889   23.4259    1.9135 N   0  0  0  0  0  0  0  0  0  0  0  0
  -89.9712   22.3046    1.2058 N   0  0  0  0  0  0  0  0  0  0  0  0
  -92.6322   22.7389    1.6556 H   0  0  0  0  0  0  0  0  0  0  0  0
  -92.1328   24.1439    2.6516 H   0  0  0  0  0  0  0  0  0  0  0  0
  -89.0565   22.1257    0.7967 H   0  0  0  0  0  0  0  0  0  0  0  0
  -87.8099   28.0459   -2.2606 C   0  0  0  0  0  0  0  0  0  0  0  0
  -88.5672   28.7581   -3.1703 O   0  0  0  0  0  0  0  0  0  0  0  0
  -89.1710   28.1094   -3.6310 H   0  0  0  0  0  0  0  0  0  0  0  0
  9 10  1  0  0  0
 10 11  2  0  0  0
 10 12  2  0  0  0
 10  3  1  0  0  0
  3  4  2  0  0  0
  4  5  1  0  0  0
  5  6  2  0  0  0
  6  7  1  0  0  0
  7  8  2  0  0  0
  6  1  1  0  0  0
  1  2  2  0  0  0
  2 21  1  0  0  0
 21 22  2  0  0  0
 22 23  1  0  0  0
 23 36  1  0  0  0
 36 37  1  0  0  0
 23 24  1  0  0  0
 24 25  2  0  0  0
 25 26  1  0  0  0
 26 27  2  0  0  0
 27 28  1  0  0  0
 28 29  2  0  0  0
 27 30  1  0  0  0
 30 31  1  0  0  0
 30 32  2  0  0  0
  1 15  1  0  0  0
 15 16  2  0  0  0
 16 17  1  0  0  0
 17 18  2  0  0  0
 18 19  1  0  0  0
 19 20  2  0  0  0
  8  3  1  0  0  0
 29 24  1  0  0  0
 20 15  1  0  0  0
  9 13  1  0  0  0
  9 14  1  0  0  0
 37 38  1  0  0  0
 31 33  1  0  0  0
 31 34  1  0  0  0
 32 35  1  0  0  0
M  END
> <minimizedAffinity>
-7.74506

> <CNNscore>
0.1075147018

> <CNNaffinity>
6.0503253937

> <CNN_VS>
0.6504989266

> <CNNaffinity_variance>
0.1443803012

$$$$
[H]N=C(c1c([H])c([H])c([C@]([H])(N=NN=C(c2c([H])c([H])nc([H])c2[H])c2c([H])c([H])c(S(=O)(=O)N([H])[H])c([H])c2[H])C([H])([H])O[H])c([H])c1[H])N([H])[H]


 38 40  0  0  0  0  0  0  0  0999 V2000
  -87.2593   31.1609   -0.7279 C   0  0  0  0  0  0  0  0  0  0  0  0
  -87.9195   30.1742   -0.2894 N   0  0  0  0  0  0  0  0  0  0  0  0
  -88.5195   33.8025   -3.7996 C   0  0  0  0  0  0  0  0  0  0  0  0
  -88.9257   33.9887   -2.5080 C   0  0  0  0  0  0  0  0  0  0  0  0
  -88.5873   33.1404   -1.4810 C   0  0  0  0  0  0  0  0  0  0  0  0
  -87.7945   32.0316   -1.7323 C   0  0  0  0  0  0  0  0  0  0  0  0
  -87.3591   31.8109   -3.0460 C   0  0  0  0  0  0  0  0  0  0  0  0
  -87.7316   32.6902   -4.0204 C   0  0  0  0  0  0  0  0  0  0  0  0
  -89.8278   36.2578   -4.5384 N   0  0  0  0  0  0  0  0  0  0  0  0
  -88.9420   34.8717   -5.1182 S   0  0  0  0  0  0  0  0  0  0  0  0
  -89.8438   34.1466   -6.0635 O   0  0  0  0  0  0  0  0  0  0  0  0
  -87.6696   35.3014   -5.7830 O   0  0  0  0  0  0  0  0  0  0  0  0
  -90.2171   35.9665   -3.6014 H   0  0  0  0  0  0  0  0  0  0  0  0
  -89.0807   36.9722   -4.2974 H   0  0  0  0  0  0  0  0  0  0  0  0
  -85.9114   31.3444   -0.1781 C   0  0  0  0  0  0  0  0  0  0  0  0
  -85.3147   30.2597    0.5013 C   0  0  0  0  0  0  0  0  0  0  0  0
  -84.0321   30.3613    0.9627 C   0  0  0  0  0  0  0  0  0  0  0  0
  -83.2945   31.4743    0.7952 N   0  0  0  0  0  0  0  0  0  0  0  0
  -83.8013   32.5377    0.1588 C   0  0  0  0  0  0  0  0  0  0  0  0
  -85.1148   32.4375   -0.3164 C   0  0  0  0  0  0  0  0  0  0  0  0
  -89.1641   29.7887   -0.6586 N   0  0  0  0  0  0  0  0  0  0  0  0
  -89.4557   28.5898   -0.9484 N   0  0  0  0  0  0  0  0  0  0  0  0
  -88.4370   27.5775   -0.8897 C   0  0  0  0  0  0  0  0  0  0  0  0
  -89.1124   26.2629   -0.7962 C   0  0  0  0  0  0  0  0  0  0  0  0
  -89.1914   25.6165    0.4157 C   0  0  0  0  0  0  0  0  0  0  0  0
  -89.8187   24.3837    0.5326 C   0  0  0  0  0  0  0  0  0  0  0  0
  -90.3909   23.7447   -0.5446 C   0  0  0  0  0  0  0  0  0  0  0  0
  -90.2959   24.4246   -1.7642 C   0  0  0  0  0  0  0  0  0  0  0  0
  -89.6757   25.6473   -1.8892 C   0  0  0  0  0  0  0  0  0  0  0  0
  -91.0551   22.4560   -0.4611 C   0  0  0  0  0  0  0  0  0  0  0  0
  -90.7018   21.5668    0.5674 N   0  0  0  0  0  0  0  0  0  0  0  0
  -91.9459   22.1477   -1.3170 N   0  0  0  0  0  0  0  0  0  0  0  0
  -91.4292   21.1015    1.1550 H   0  0  0  0  0  0  0  0  0  0  0  0
  -89.6912   21.3378    0.7822 H   0  0  0  0  0  0  0  0  0  0  0  0
  -92.3040   22.6793   -2.1076 H   0  0  0  0  0  0  0  0  0  0  0  0
  -87.4906   27.6454   -2.0672 C   0  0  0  0  0  0  0  0  0  0  0  0
  -88.0487   28.3844   -3.0923 O   0  0  0  0  0  0  0  0  0  0  0  0
  -88.3894   27.7404   -3.7755 H   0  0  0  0  0  0  0  0  0  0  0  0
  9 10  1  0  0  0
 10 11  2  0  0  0
 10 12  2  0  0  0
 10  3  1  0  0  0
  3  4  2  0  0  0
  4  5  1  0  0  0
  5  6  2  0  0  0
  6  7  1  0  0  0
  7  8  2  0  0  0
  6  1  1  0  0  0
  1  2  2  0  0  0
  2 21  1  0  0  0
 21 22  2  0  0  0
 22 23  1  0  0  0
 23 36  1  0  0  0
 36 37  1  0  0  0
 23 24  1  0  0  0
 24 25  2  0  0  0
 25 26  1  0  0  0
 26 27  2  0  0  0
 27 28  1  0  0  0
 28 29  2  0  0  0
 27 30  1  0  0  0
 30 31  1  0  0  0
 30 32  2  0  0  0
  1 15  1  0  0  0
 15 16  2  0  0  0
 16 17  1  0  0  0
 17 18  2  0  0  0
 18 19  1  0  0  0
 19 20  2  0  0  0
  8  3  1  0  0  0
 29 24  1  0  0  0
 20 15  1  0  0  0
  9 13  1  0  0  0
  9 14  1  0  0  0
 37 38  1  0  0  0
 31 33  1  0  0  0
 31 34  1  0  0  0
 32 35  1  0  0  0
M  END
> <minimizedAffinity>
-7.63036

> <CNNscore>
0.1049696580

> <CNNaffinity>
5.9504675865

> <CNN_VS>
0.6246185303

> <CNNaffinity_variance>
0.1336026043

$$$$
[H]N=C(c1c([H])c([H])c([C@]([H])(N=NN=C(c2c([H])c([H])nc([H])c2[H])c2c([H])c([H])c(S(=O)(=O)N([H])[H])c([H])c2[H])C([H])([H])O[H])c([H])c1[H])N([H])[H]


 38 40  0  0  0  0  0  0  0  0999 V2000
  -88.3296   29.6866   -2.5186 C   0  0  0  0  0  0  0  0  0  0  0  0
  -88.9089   28.5842   -2.7443 N   0  0  0  0  0  0  0  0  0  0  0  0
  -85.4767   30.4165    0.5359 C   0  0  0  0  0  0  0  0  0  0  0  0
  -85.5189   29.2112   -0.1070 C   0  0  0  0  0  0  0  0  0  0  0  0
  -86.4488   28.9023   -1.0706 C   0  0  0  0  0  0  0  0  0  0  0  0
  -87.4054   29.8372   -1.4339 C   0  0  0  0  0  0  0  0  0  0  0  0
  -87.3905   31.0845   -0.7952 C   0  0  0  0  0  0  0  0  0  0  0  0
  -86.4415   31.3277    0.1543 C   0  0  0  0  0  0  0  0  0  0  0  0
  -83.1485   31.9883    1.1641 N   0  0  0  0  0  0  0  0  0  0  0  0
  -84.3009   30.8252    1.7650 S   0  0  0  0  0  0  0  0  0  0  0  0
  -83.5285   29.5986    2.1274 O   0  0  0  0  0  0  0  0  0  0  0  0
  -85.0446   31.3815    2.9411 O   0  0  0  0  0  0  0  0  0  0  0  0
  -83.1978   31.9103    0.1125 H   0  0  0  0  0  0  0  0  0  0  0  0
  -83.5856   32.9325    1.3743 H   0  0  0  0  0  0  0  0  0  0  0  0
  -88.6786   30.8038   -3.4033 C   0  0  0  0  0  0  0  0  0  0  0  0
  -90.0255   31.2260   -3.4453 C   0  0  0  0  0  0  0  0  0  0  0  0
  -90.3811   32.3107   -4.1971 C   0  0  0  0  0  0  0  0  0  0  0  0
  -89.4851   33.0113   -4.9162 N   0  0  0  0  0  0  0  0  0  0  0  0
  -88.1922   32.6633   -4.9184 C   0  0  0  0  0  0  0  0  0  0  0  0
  -87.8233   31.5531   -4.1488 C   0  0  0  0  0  0  0  0  0  0  0  0
  -88.7702   27.4267   -2.0551 N   0  0  0  0  0  0  0  0  0  0  0  0
  -89.7422   26.6513   -1.8094 N   0  0  0  0  0  0  0  0  0  0  0  0
  -91.0588   26.9947   -2.2724 C   0  0  0  0  0  0  0  0  0  0  0  0
  -91.7272   25.7442   -2.6997 C   0  0  0  0  0  0  0  0  0  0  0  0
  -91.2593   24.5294   -2.2547 C   0  0  0  0  0  0  0  0  0  0  0  0
  -91.8663   23.3415   -2.6388 C   0  0  0  0  0  0  0  0  0  0  0  0
  -92.9583   23.3113   -3.4770 C   0  0  0  0  0  0  0  0  0  0  0  0
  -93.4129   24.5607   -3.9141 C   0  0  0  0  0  0  0  0  0  0  0  0
  -92.8170   25.7436   -3.5382 C   0  0  0  0  0  0  0  0  0  0  0  0
  -93.6194   22.0895   -3.9003 C   0  0  0  0  0  0  0  0  0  0  0  0
  -94.9926   22.1183   -4.1947 N   0  0  0  0  0  0  0  0  0  0  0  0
  -92.9503   21.0109   -3.9992 N   0  0  0  0  0  0  0  0  0  0  0  0
  -95.3669   21.6995   -5.0753 H   0  0  0  0  0  0  0  0  0  0  0  0
  -95.6932   22.5631   -3.5380 H   0  0  0  0  0  0  0  0  0  0  0  0
  -91.9633   20.8358   -3.8227 H   0  0  0  0  0  0  0  0  0  0  0  0
  -91.8606   27.7365   -1.2265 C   0  0  0  0  0  0  0  0  0  0  0  0
  -91.0612   28.6462   -0.5619 O   0  0  0  0  0  0  0  0  0  0  0  0
  -90.8237   28.2471    0.3224 H   0  0  0  0  0  0  0  0  0  0  0  0
  9 10  1  0  0  0
 10 11  2  0  0  0
 10 12  2  0  0  0
 10  3  1  0  0  0
  3  4  2  0  0  0
  4  5  1  0  0  0
  5  6  2  0  0  0
  6  7  1  0  0  0
  7  8  2  0  0  0
  6  1  1  0  0  0
  1  2  2  0  0  0
  2 21  1  0  0  0
 21 22  2  0  0  0
 22 23  1  0  0  0
 23 36  1  0  0  0
 36 37  1  0  0  0
 23 24  1  0  0  0
 24 25  2  0  0  0
 25 26  1  0  0  0
 26 27  2  0  0  0
 27 28  1  0  0  0
 28 29  2  0  0  0
 27 30  1  0  0  0
 30 31  1  0  0  0
 30 32  2  0  0  0
  1 15  1  0  0  0
 15 16  2  0  0  0
 16 17  1  0  0  0
 17 18  2  0  0  0
 18 19  1  0  0  0
 19 20  2  0  0  0
  8  3  1  0  0  0
 29 24  1  0  0  0
 20 15  1  0  0  0
  9 13  1  0  0  0
  9 14  1  0  0  0
 37 38  1  0  0  0
 31 33  1  0  0  0
 31 34  1  0  0  0
 32 35  1  0  0  0
M  END
> <minimizedAffinity>
-7.78021

> <CNNscore>
0.0998409688

> <CNNaffinity>
5.2519211769

> <CNN_VS>
0.5243569016

> <CNNaffinity_variance>
0.4461154044

$$$$
[H]N=C(c1c([H])c([H])c([C@]([H])(N=NN=C(c2c([H])c([H])nc([H])c2[H])c2c([H])c([H])c(S(=O)(=O)N([H])[H])c([H])c2[H])C([H])([H])O[H])c([H])c1[H])N([H])[H]


 38 40  0  0  0  0  0  0  0  0999 V2000
  -88.7072   35.5014   -3.6327 C   0  0  0  0  0  0  0  0  0  0  0  0
  -88.4027   34.8827   -2.5714 N   0  0  0  0  0  0  0  0  0  0  0  0
  -91.7978   33.8933   -6.0542 C   0  0  0  0  0  0  0  0  0  0  0  0
  -90.5086   33.4603   -6.1883 C   0  0  0  0  0  0  0  0  0  0  0  0
  -89.4603   33.9764   -5.4648 C   0  0  0  0  0  0  0  0  0  0  0  0
  -89.6866   34.9867   -4.5433 C   0  0  0  0  0  0  0  0  0  0  0  0
  -90.9977   35.4541   -4.3795 C   0  0  0  0  0  0  0  0  0  0  0  0
  -91.9935   34.9004   -5.1299 C   0  0  0  0  0  0  0  0  0  0  0  0
  -93.3031   31.5300   -6.7139 N   0  0  0  0  0  0  0  0  0  0  0  0
  -93.1430   33.2482   -6.9678 S   0  0  0  0  0  0  0  0  0  0  0  0
  -92.8822   33.4475   -8.4255 O   0  0  0  0  0  0  0  0  0  0  0  0
  -94.3823   33.9631   -6.5220 O   0  0  0  0  0  0  0  0  0  0  0  0
  -92.3585   31.2115   -6.3665 H   0  0  0  0  0  0  0  0  0  0  0  0
  -93.9342   31.4418   -5.8650 H   0  0  0  0  0  0  0  0  0  0  0  0
  -87.9835   36.7506   -3.8940 C   0  0  0  0  0  0  0  0  0  0  0  0
  -88.3579   37.9028   -3.1683 C   0  0  0  0  0  0  0  0  0  0  0  0
  -87.6611   39.0683   -3.3246 C   0  0  0  0  0  0  0  0  0  0  0  0
  -86.6096   39.1704   -4.1581 N   0  0  0  0  0  0  0  0  0  0  0  0
  -86.2033   38.1145   -4.8742 C   0  0  0  0  0  0  0  0  0  0  0  0
  -86.9139   36.9181   -4.7165 C   0  0  0  0  0  0  0  0  0  0  0  0
  -88.9114   33.7076   -2.1305 N   0  0  0  0  0  0  0  0  0  0  0  0
  -88.2204   32.8515   -1.5012 N   0  0  0  0  0  0  0  0  0  0  0  0
  -86.8338   33.1176   -1.2320 C   0  0  0  0  0  0  0  0  0  0  0  0
  -86.2991   31.9784   -0.4513 C   0  0  0  0  0  0  0  0  0  0  0  0
  -86.9270   30.7555   -0.5039 C   0  0  0  0  0  0  0  0  0  0  0  0
  -86.4478   29.6704    0.2171 C   0  0  0  0  0  0  0  0  0  0  0  0
  -85.3299   29.7548    1.0167 C   0  0  0  0  0  0  0  0  0  0  0  0
  -84.7115   31.0098    1.0514 C   0  0  0  0  0  0  0  0  0  0  0  0
  -85.1800   32.0912    0.3397 C   0  0  0  0  0  0  0  0  0  0  0  0
  -84.7993   28.6426    1.7850 C   0  0  0  0  0  0  0  0  0  0  0  0
  -83.5202   28.7504    2.3557 N   0  0  0  0  0  0  0  0  0  0  0  0
  -85.4958   27.5870    1.9320 N   0  0  0  0  0  0  0  0  0  0  0  0
  -83.3511   28.5049    3.3567 H   0  0  0  0  0  0  0  0  0  0  0  0
  -82.6868   29.0824    1.7944 H   0  0  0  0  0  0  0  0  0  0  0  0
  -86.4258   27.3640    1.5835 H   0  0  0  0  0  0  0  0  0  0  0  0
  -86.0394   33.3606   -2.4956 C   0  0  0  0  0  0  0  0  0  0  0  0
  -86.6455   32.7430   -3.5724 O   0  0  0  0  0  0  0  0  0  0  0  0
  -86.1380   31.9038   -3.7616 H   0  0  0  0  0  0  0  0  0  0  0  0
  9 10  1  0  0  0
 10 11  2  0  0  0
 10 12  2  0  0  0
 10  3  1  0  0  0
  3  4  2  0  0  0
  4  5  1  0  0  0
  5  6  2  0  0  0
  6  7  1  0  0  0
  7  8  2  0  0  0
  6  1  1  0  0  0
  1  2  2  0  0  0
  2 21  1  0  0  0
 21 22  2  0  0  0
 22 23  1  0  0  0
 23 36  1  0  0  0
 36 37  1  0  0  0
 23 24  1  0  0  0
 24 25  2  0  0  0
 25 26  1  0  0  0
 26 27  2  0  0  0
 27 28  1  0  0  0
 28 29  2  0  0  0
 27 30  1  0  0  0
 30 31  1  0  0  0
 30 32  2  0  0  0
  1 15  1  0  0  0
 15 16  2  0  0  0
 16 17  1  0  0  0
 17 18  2  0  0  0
 18 19  1  0  0  0
 19 20  2  0  0  0
  8  3  1  0  0  0
 29 24  1  0  0  0
 20 15  1  0  0  0
  9 13  1  0  0  0
  9 14  1  0  0  0
 37 38  1  0  0  0
 31 33  1  0  0  0
 31 34  1  0  0  0
 32 35  1  0  0  0
M  END
> <minimizedAffinity>
-7.58800

> <CNNscore>
0.0996962711

> <CNNaffinity>
5.5093164444

> <CNN_VS>
0.5492582917

> <CNNaffinity_variance>
0.1777448803

$$$$
[H]N=C(c1c([H])c([H])c([C@]([H])(N=NN=C(c2c([H])c([H])nc([H])c2[H])c2c([H])c([H])c(S(=O)(=O)N([H])[H])c([H])c2[H])C([H])([H])O[H])c([H])c1[H])N([H])[H]


 38 40  0  0  0  0  0  0  0  0999 V2000
  -88.9209   30.9581   -1.5282 C   0  0  0  0  0  0  0  0  0  0  0  0
  -89.9590   30.3807   -1.0913 N   0  0  0  0  0  0  0  0  0  0  0  0
  -85.1585   31.1505    0.4233 C   0  0  0  0  0  0  0  0  0  0  0  0
  -85.7465   29.9459    0.1572 C   0  0  0  0  0  0  0  0  0  0  0  0
  -86.9830   29.8233   -0.4300 C   0  0  0  0  0  0  0  0  0  0  0  0
  -87.6962   30.9577   -0.7843 C   0  0  0  0  0  0  0  0  0  0  0  0
  -87.1221   32.2099   -0.5267 C   0  0  0  0  0  0  0  0  0  0  0  0
  -85.8916   32.2629    0.0603 C   0  0  0  0  0  0  0  0  0  0  0  0
  -82.5312   32.3024    0.1854 N   0  0  0  0  0  0  0  0  0  0  0  0
  -83.5864   31.3240    1.1709 S   0  0  0  0  0  0  0  0  0  0  0  0
  -82.9486   29.9774    1.2824 O   0  0  0  0  0  0  0  0  0  0  0  0
  -83.7873   31.9568    2.5144 O   0  0  0  0  0  0  0  0  0  0  0  0
  -82.9450   32.2664   -0.7850 H   0  0  0  0  0  0  0  0  0  0  0  0
  -82.7109   33.2981    0.5065 H   0  0  0  0  0  0  0  0  0  0  0  0
  -89.0486   31.6510   -2.8151 C   0  0  0  0  0  0  0  0  0  0  0  0
  -88.3758   31.1111   -3.9331 C   0  0  0  0  0  0  0  0  0  0  0  0
  -88.5285   31.6805   -5.1663 C   0  0  0  0  0  0  0  0  0  0  0  0
  -89.3092   32.7577   -5.3685 N   0  0  0  0  0  0  0  0  0  0  0  0
  -89.9749   33.3170   -4.3502 C   0  0  0  0  0  0  0  0  0  0  0  0
  -89.8220   32.7362   -3.0852 C   0  0  0  0  0  0  0  0  0  0  0  0
  -90.0936   29.7023    0.0731 N   0  0  0  0  0  0  0  0  0  0  0  0
  -90.4640   28.4914    0.1253 N   0  0  0  0  0  0  0  0  0  0  0  0
  -90.7596   27.7864   -1.0919 C   0  0  0  0  0  0  0  0  0  0  0  0
  -90.5711   26.3405   -0.8329 C   0  0  0  0  0  0  0  0  0  0  0  0
  -90.3945   25.4722   -1.8852 C   0  0  0  0  0  0  0  0  0  0  0  0
  -90.2154   24.1123   -1.6719 C   0  0  0  0  0  0  0  0  0  0  0  0
  -90.2043   23.5611   -0.4101 C   0  0  0  0  0  0  0  0  0  0  0  0
  -90.3860   24.4670    0.6410 C   0  0  0  0  0  0  0  0  0  0  0  0
  -90.5643   25.8171    0.4386 C   0  0  0  0  0  0  0  0  0  0  0  0
  -90.0198   22.1447   -0.1479 C   0  0  0  0  0  0  0  0  0  0  0  0
  -88.7335   21.6625    0.1457 N   0  0  0  0  0  0  0  0  0  0  0  0
  -91.0211   21.3593   -0.1870 N   0  0  0  0  0  0  0  0  0  0  0  0
  -88.5631   21.0373    0.9649 H   0  0  0  0  0  0  0  0  0  0  0  0
  -87.8956   21.9144   -0.4496 H   0  0  0  0  0  0  0  0  0  0  0  0
  -91.9999   21.5578   -0.3830 H   0  0  0  0  0  0  0  0  0  0  0  0
  -92.1466   28.0926   -1.6111 C   0  0  0  0  0  0  0  0  0  0  0  0
  -92.7359   29.0869   -0.8546 O   0  0  0  0  0  0  0  0  0  0  0  0
  -93.3819   28.6474   -0.2323 H   0  0  0  0  0  0  0  0  0  0  0  0
  9 10  1  0  0  0
 10 11  2  0  0  0
 10 12  2  0  0  0
 10  3  1  0  0  0
  3  4  2  0  0  0
  4  5  1  0  0  0
  5  6  2  0  0  0
  6  7  1  0  0  0
  7  8  2  0  0  0
  6  1  1  0  0  0
  1  2  2  0  0  0
  2 21  1  0  0  0
 21 22  2  0  0  0
 22 23  1  0  0  0
 23 36  1  0  0  0
 36 37  1  0  0  0
 23 24  1  0  0  0
 24 25  2  0  0  0
 25 26  1  0  0  0
 26 27  2  0  0  0
 27 28  1  0  0  0
 28 29  2  0  0  0
 27 30  1  0  0  0
 30 31  1  0  0  0
 30 32  2  0  0  0
  1 15  1  0  0  0
 15 16  2  0  0  0
 16 17  1  0  0  0
 17 18  2  0  0  0
 18 19  1  0  0  0
 19 20  2  0  0  0
  8  3  1  0  0  0
 29 24  1  0  0  0
 20 15  1  0  0  0
  9 13  1  0  0  0
  9 14  1  0  0  0
 37 38  1  0  0  0
 31 33  1  0  0  0
 31 34  1  0  0  0
 32 35  1  0  0  0
M  END
> <minimizedAffinity>
-8.23321

> <CNNscore>
0.0983392075

> <CNNaffinity>
5.6873788834

> <CNN_VS>
0.5592923164

> <CNNaffinity_variance>
0.5372991562

$$$$
[H]N=C(N([H])[H])N([H])C([H])([H])C([H])([H])C([H])([H])[C@@]([H])(C(=O)c1nc([H])c([H])s1)N([H])C(=O)[C@@]([H])(N([H])C(=O)[C@@]([H])(N([H])[H])C([H])([H])c1c([H])c([H])c([H])c([H])c1[H])C([H])([H])C([H])([H])C([H])([H])N([H])C(=N[H])N([H])[H]


 50 51  0  0  0  0  0  0  0  0999 V2000
  -89.2773   33.7907   -3.1220 C   0  0  0  0  0  0  0  0  0  0  0  0
  -87.4547   33.0617   -1.6178 C   0  0  0  0  0  0  0  0  0  0  0  0
  -88.3021   32.8851   -0.6887 O   0  0  0  0  0  0  0  0  0  0  0  0
  -87.8633   33.5264   -2.9003 N   0  0  0  0  0  0  0  0  0  0  0  0
  -87.1409   33.6574   -3.6185 H   0  0  0  0  0  0  0  0  0  0  0  0
  -85.2126   33.5115   -2.2747 N   0  0  0  0  0  0  0  0  0  0  0  0
  -86.0297   32.7805   -1.3609 C   0  0  0  0  0  0  0  0  0  0  0  0
  -85.2817   34.5342   -2.1990 H   0  0  0  0  0  0  0  0  0  0  0  0
  -85.4556   33.2285   -3.2492 H   0  0  0  0  0  0  0  0  0  0  0  0
  -85.6308   32.9807    0.0857 C   0  0  0  0  0  0  0  0  0  0  0  0
  -84.6956   31.9662    0.5925 C   0  0  0  0  0  0  0  0  0  0  0  0
  -85.1586   30.9604    1.4078 C   0  0  0  0  0  0  0  0  0  0  0  0
  -84.2903   29.9800    1.9100 C   0  0  0  0  0  0  0  0  0  0  0  0
  -82.9588   30.0467    1.5662 C   0  0  0  0  0  0  0  0  0  0  0  0
  -82.5120   31.0715    0.7407 C   0  0  0  0  0  0  0  0  0  0  0  0
  -83.3611   32.0283    0.2519 C   0  0  0  0  0  0  0  0  0  0  0  0
  -90.0367   32.5357   -3.3403 C   0  0  0  0  0  0  0  0  0  0  0  0
  -89.9974   31.9954   -4.4772 O   0  0  0  0  0  0  0  0  0  0  0  0
  -90.8032   31.9035   -2.3453 N   0  0  0  0  0  0  0  0  0  0  0  0
  -90.8241   32.3456   -1.4038 H   0  0  0  0  0  0  0  0  0  0  0  0
  -91.5680   30.6795   -2.5082 C   0  0  0  0  0  0  0  0  0  0  0  0
  -90.7113   29.5285   -2.7883 C   0  0  0  0  0  0  0  0  0  0  0  0
  -91.0362   28.6079   -3.5982 O   0  0  0  0  0  0  0  0  0  0  0  0
  -89.4202   29.4014   -2.1272 C   0  0  0  0  0  0  0  0  0  0  0  0
  -89.2245   29.5263   -0.8161 N   0  0  0  0  0  0  0  0  0  0  0  0
  -88.0454   29.3802   -0.3193 C   0  0  0  0  0  0  0  0  0  0  0  0
  -87.0124   29.0951   -1.1778 C   0  0  0  0  0  0  0  0  0  0  0  0
  -87.8408   29.0589   -2.6766 S   0  0  0  0  0  0  0  0  0  0  0  0
  -92.6162   30.9022   -3.6159 C   0  0  0  0  0  0  0  0  0  0  0  0
  -93.9241   30.3015   -3.2435 C   0  0  0  0  0  0  0  0  0  0  0  0
  -94.6586   29.6121   -4.3330 C   0  0  0  0  0  0  0  0  0  0  0  0
  -94.0027   28.5201   -4.9696 N   0  0  0  0  0  0  0  0  0  0  0  0
  -93.9186   27.6244   -4.3881 H   0  0  0  0  0  0  0  0  0  0  0  0
  -93.4521   28.4538   -6.2575 C   0  0  0  0  0  0  0  0  0  0  0  0
  -94.1469   28.2424   -7.4672 N   0  0  0  0  0  0  0  0  0  0  0  0
  -92.1457   28.5996   -6.3242 N   0  0  0  0  0  0  0  0  0  0  0  0
  -94.1362   29.0283   -8.1557 H   0  0  0  0  0  0  0  0  0  0  0  0
  -94.6527   27.3788   -7.7121 H   0  0  0  0  0  0  0  0  0  0  0  0
  -91.6362   28.5676   -7.2239 H   0  0  0  0  0  0  0  0  0  0  0  0
  -89.4714   34.7813   -4.2526 C   0  0  0  0  0  0  0  0  0  0  0  0
  -90.2098   36.0051   -3.8181 C   0  0  0  0  0  0  0  0  0  0  0  0
  -89.4235   37.2817   -3.8834 C   0  0  0  0  0  0  0  0  0  0  0  0
  -88.0054   37.1200   -3.8149 N   0  0  0  0  0  0  0  0  0  0  0  0
  -87.5505   36.6692   -2.9959 H   0  0  0  0  0  0  0  0  0  0  0  0
  -87.2109   37.5980   -4.9133 C   0  0  0  0  0  0  0  0  0  0  0  0
  -85.8131   37.4792   -4.8718 N   0  0  0  0  0  0  0  0  0  0  0  0
  -87.7805   38.1339   -5.9345 N   0  0  0  0  0  0  0  0  0  0  0  0
  -85.2243   38.3438   -4.7547 H   0  0  0  0  0  0  0  0  0  0  0  0
  -85.3800   36.5428   -4.9575 H   0  0  0  0  0  0  0  0  0  0  0  0
  -88.7890   38.2663   -6.0618 H   0  0  0  0  0  0  0  0  0  0  0  0
  6  7  1  0  0  0
  7 10  1  0  0  0
 10 11  1  0  0  0
 11 12  2  0  0  0
 12 13  1  0  0  0
 13 14  2  0  0  0
 14 15  1  0  0  0
 15 16  2  0  0  0
  7  2  1  0  0  0
  2  3  2  0  0  0
  2  4  1  0  0  0
  4  1  1  0  0  0
  1 40  1  0  0  0
 40 41  1  0  0  0
 41 42  1  0  0  0
 42 43  1  0  0  0
 43 45  1  0  0  0
 45 46  1  0  0  0
 45 47  2  0  0  0
  1 17  1  0  0  0
 17 18  2  0  0  0
 17 19  1  0  0  0
 19 21  1  0  0  0
 21 29  1  0  0  0
 29 30  1  0  0  0
 30 31  1  0  0  0
 31 32  1  0  0  0
 32 34  1  0  0  0
 34 35  1  0  0  0
 34 36  2  0  0  0
 21 22  1  0  0  0
 22 23  2  0  0  0
 22 24  1  0  0  0
 24 25  2  0  0  0
 25 26  1  0  0  0
 26 27  2  0  0  0
 27 28  1  0  0  0
 16 11  1  0  0  0
 28 24  1  0  0  0
  6  8  1  0  0  0
  6  9  1  0  0  0
  4  5  1  0  0  0
 43 44  1  0  0  0
 46 48  1  0  0  0
 46 49  1  0  0  0
 47 50  1  0  0  0
 19 20  1  0  0  0
 32 33  1  0  0  0
 35 37  1  0  0  0
 35 38  1  0  0  0
 36 39  1  0  0  0
M  END
> <minimizedAffinity>
-7.02489

> <CNNscore>
0.1963838041

> <CNNaffinity>
6.2169165611

> <CNN_VS>
1.2209017277

> <CNNaffinity_variance>
0.4663030505

$$$$
[H]N=C(N([H])[H])N([H])C([H])([H])C([H])([H])C([H])([H])[C@@]([H])(C(=O)c1nc([H])c([H])s1)N([H])C(=O)[C@@]([H])(N([H])C(=O)[C@@]([H])(N([H])[H])C([H])([H])c1c([H])c([H])c([H])c([H])c1[H])C([H])([H])C([H])([H])C([H])([H])N([H])C(=N[H])N([H])[H]


 50 51  0  0  0  0  0  0  0  0999 V2000
  -86.9625   33.3015   -2.4449 C   0  0  0  0  0  0  0  0  0  0  0  0
  -85.4480   32.6207   -0.6122 C   0  0  0  0  0  0  0  0  0  0  0  0
  -86.4538   32.2688    0.0783 O   0  0  0  0  0  0  0  0  0  0  0  0
  -85.6127   33.1633   -1.9184 N   0  0  0  0  0  0  0  0  0  0  0  0
  -84.7693   33.4369   -2.4368 H   0  0  0  0  0  0  0  0  0  0  0  0
  -83.2507   33.5257   -0.4960 N   0  0  0  0  0  0  0  0  0  0  0  0
  -84.0933   32.4636   -0.0502 C   0  0  0  0  0  0  0  0  0  0  0  0
  -83.5375   34.4655   -0.1942 H   0  0  0  0  0  0  0  0  0  0  0  0
  -83.2022   33.5066   -1.5382 H   0  0  0  0  0  0  0  0  0  0  0  0
  -84.0851   32.2883    1.4534 C   0  0  0  0  0  0  0  0  0  0  0  0
  -83.9562   30.8908    1.8905 C   0  0  0  0  0  0  0  0  0  0  0  0
  -84.9731   30.3049    2.6069 C   0  0  0  0  0  0  0  0  0  0  0  0
  -84.8779   28.9745    3.0408 C   0  0  0  0  0  0  0  0  0  0  0  0
  -83.7395   28.2649    2.7312 C   0  0  0  0  0  0  0  0  0  0  0  0
  -82.7238   28.8762    2.0060 C   0  0  0  0  0  0  0  0  0  0  0  0
  -82.8181   30.1755    1.5838 C   0  0  0  0  0  0  0  0  0  0  0  0
  -87.4371   32.0386   -3.0608 C   0  0  0  0  0  0  0  0  0  0  0  0
  -87.5378   31.9781   -4.3146 O   0  0  0  0  0  0  0  0  0  0  0  0
  -87.7823   30.8917   -2.3240 N   0  0  0  0  0  0  0  0  0  0  0  0
  -87.6867   30.9408   -1.2892 H   0  0  0  0  0  0  0  0  0  0  0  0
  -88.2563   29.6350   -2.8764 C   0  0  0  0  0  0  0  0  0  0  0  0
  -89.7006   29.4737   -2.7172 C   0  0  0  0  0  0  0  0  0  0  0  0
  -90.5281   29.7154   -3.6476 O   0  0  0  0  0  0  0  0  0  0  0  0
  -90.2484   29.0155   -1.4483 C   0  0  0  0  0  0  0  0  0  0  0  0
  -90.1984   29.7028   -0.3090 N   0  0  0  0  0  0  0  0  0  0  0  0
  -90.7269   29.2219    0.7625 C   0  0  0  0  0  0  0  0  0  0  0  0
  -91.3348   27.9930    0.6887 C   0  0  0  0  0  0  0  0  0  0  0  0
  -91.0917   27.6129   -0.9637 S   0  0  0  0  0  0  0  0  0  0  0  0
  -87.4707   28.4844   -2.2174 C   0  0  0  0  0  0  0  0  0  0  0  0
  -86.6467   28.9797   -1.0835 C   0  0  0  0  0  0  0  0  0  0  0  0
  -86.5002   28.0558    0.0683 C   0  0  0  0  0  0  0  0  0  0  0  0
  -87.6956   27.5275    0.6342 N   0  0  0  0  0  0  0  0  0  0  0  0
  -88.4653   28.2417    0.8466 H   0  0  0  0  0  0  0  0  0  0  0  0
  -88.0066   26.1974    0.9507 C   0  0  0  0  0  0  0  0  0  0  0  0
  -88.1432   25.1206    0.0490 N   0  0  0  0  0  0  0  0  0  0  0  0
  -88.1942   25.9473    2.2292 N   0  0  0  0  0  0  0  0  0  0  0  0
  -87.4467   24.3468    0.1364 H   0  0  0  0  0  0  0  0  0  0  0  0
  -88.8729   25.0483   -0.6748 H   0  0  0  0  0  0  0  0  0  0  0  0
  -88.4285   25.0004    2.5735 H   0  0  0  0  0  0  0  0  0  0  0  0
  -87.0525   34.4739   -3.4011 C   0  0  0  0  0  0  0  0  0  0  0  0
  -88.2742   35.3030   -3.1735 C   0  0  0  0  0  0  0  0  0  0  0  0
  -88.3861   36.5251   -4.0373 C   0  0  0  0  0  0  0  0  0  0  0  0
  -87.6453   37.6574   -3.5781 N   0  0  0  0  0  0  0  0  0  0  0  0
  -87.6938   37.9714   -2.5882 H   0  0  0  0  0  0  0  0  0  0  0  0
  -86.8216   38.3617   -4.5224 C   0  0  0  0  0  0  0  0  0  0  0  0
  -85.5892   37.8200   -4.9190 N   0  0  0  0  0  0  0  0  0  0  0  0
  -87.2140   39.4878   -5.0047 N   0  0  0  0  0  0  0  0  0  0  0  0
  -84.6968   38.2762   -4.5974 H   0  0  0  0  0  0  0  0  0  0  0  0
  -85.5745   36.9795   -5.5233 H   0  0  0  0  0  0  0  0  0  0  0  0
  -88.0927   39.9660   -4.7811 H   0  0  0  0  0  0  0  0  0  0  0  0
  6  7  1  0  0  0
  7 10  1  0  0  0
 10 11  1  0  0  0
 11 12  2  0  0  0
 12 13  1  0  0  0
 13 14  2  0  0  0
 14 15  1  0  0  0
 15 16  2  0  0  0
  7  2  1  0  0  0
  2  3  2  0  0  0
  2  4  1  0  0  0
  4  1  1  0  0  0
  1 40  1  0  0  0
 40 41  1  0  0  0
 41 42  1  0  0  0
 42 43  1  0  0  0
 43 45  1  0  0  0
 45 46  1  0  0  0
 45 47  2  0  0  0
  1 17  1  0  0  0
 17 18  2  0  0  0
 17 19  1  0  0  0
 19 21  1  0  0  0
 21 29  1  0  0  0
 29 30  1  0  0  0
 30 31  1  0  0  0
 31 32  1  0  0  0
 32 34  1  0  0  0
 34 35  1  0  0  0
 34 36  2  0  0  0
 21 22  1  0  0  0
 22 23  2  0  0  0
 22 24  1  0  0  0
 24 25  2  0  0  0
 25 26  1  0  0  0
 26 27  2  0  0  0
 27 28  1  0  0  0
 16 11  1  0  0  0
 28 24  1  0  0  0
  6  8  1  0  0  0
  6  9  1  0  0  0
  4  5  1  0  0  0
 43 44  1  0  0  0
 46 48  1  0  0  0
 46 49  1  0  0  0
 47 50  1  0  0  0
 19 20  1  0  0  0
 32 33  1  0  0  0
 35 37  1  0  0  0
 35 38  1  0  0  0
 36 39  1  0  0  0
M  END
> <minimizedAffinity>
-8.03866

> <CNNscore>
0.1936314702

> <CNNaffinity>
6.7431211472

> <CNN_VS>
1.3056805134

> <CNNaffinity_variance>
0.3777033389

$$$$
[H]N=C(N([H])[H])N([H])C([H])([H])C([H])([H])C([H])([H])[C@@]([H])(C(=O)c1nc([H])c([H])s1)N([H])C(=O)[C@@]([H])(N([H])C(=O)[C@@]([H])(N([H])[H])C([H])([H])c1c([H])c([H])c([H])c([H])c1[H])C([H])([H])C([H])([H])C([H])([H])N([H])C(=N[H])N([H])[H]


 50 51  0  0  0  0  0  0  0  0999 V2000
  -87.5038   31.8005   -1.1176 C   0  0  0  0  0  0  0  0  0  0  0  0
  -85.2699   32.5486   -0.3655 C   0  0  0  0  0  0  0  0  0  0  0  0
  -85.6373   33.7567   -0.4998 O   0  0  0  0  0  0  0  0  0  0  0  0
  -86.1602   31.4774   -0.6611 N   0  0  0  0  0  0  0  0  0  0  0  0
  -85.8161   30.5172   -0.5405 H   0  0  0  0  0  0  0  0  0  0  0  0
  -82.9988   33.2579   -0.3624 N   0  0  0  0  0  0  0  0  0  0  0  0
  -83.9023   32.2559    0.1031 C   0  0  0  0  0  0  0  0  0  0  0  0
  -83.1833   34.2070   -0.0135 H   0  0  0  0  0  0  0  0  0  0  0  0
  -83.0162   33.2731   -1.4056 H   0  0  0  0  0  0  0  0  0  0  0  0
  -83.8173   32.0254    1.5969 C   0  0  0  0  0  0  0  0  0  0  0  0
  -83.8170   30.6070    1.9826 C   0  0  0  0  0  0  0  0  0  0  0  0
  -82.6803   29.8537    1.8061 C   0  0  0  0  0  0  0  0  0  0  0  0
  -82.6501   28.4971    2.1611 C   0  0  0  0  0  0  0  0  0  0  0  0
  -83.7883   27.9344    2.6934 C   0  0  0  0  0  0  0  0  0  0  0  0
  -84.9262   28.7138    2.8635 C   0  0  0  0  0  0  0  0  0  0  0  0
  -84.9540   30.0380    2.5157 C   0  0  0  0  0  0  0  0  0  0  0  0
  -88.5136   30.8947   -0.5183 C   0  0  0  0  0  0  0  0  0  0  0  0
  -89.6511   31.3575   -0.2395 O   0  0  0  0  0  0  0  0  0  0  0  0
  -88.2781   29.5361   -0.2422 N   0  0  0  0  0  0  0  0  0  0  0  0
  -87.3415   29.1536   -0.4847 H   0  0  0  0  0  0  0  0  0  0  0  0
  -89.2285   28.6095    0.3473 C   0  0  0  0  0  0  0  0  0  0  0  0
  -88.5789   27.6430    1.2312 C   0  0  0  0  0  0  0  0  0  0  0  0
  -87.4220   27.1732    1.0079 O   0  0  0  0  0  0  0  0  0  0  0  0
  -89.2604   27.1780    2.4310 C   0  0  0  0  0  0  0  0  0  0  0  0
  -88.9707   26.0512    3.0786 N   0  0  0  0  0  0  0  0  0  0  0  0
  -89.6191   25.7303    4.1441 C   0  0  0  0  0  0  0  0  0  0  0  0
  -90.6051   26.5795    4.5818 C   0  0  0  0  0  0  0  0  0  0  0  0
  -90.5218   27.8091    3.3923 S   0  0  0  0  0  0  0  0  0  0  0  0
  -90.0076   27.9196   -0.7894 C   0  0  0  0  0  0  0  0  0  0  0  0
  -91.4071   27.6299   -0.3799 C   0  0  0  0  0  0  0  0  0  0  0  0
  -91.8170   26.2044   -0.4226 C   0  0  0  0  0  0  0  0  0  0  0  0
  -90.8038   25.2448   -0.7067 N   0  0  0  0  0  0  0  0  0  0  0  0
  -90.6086   25.0673   -1.7450 H   0  0  0  0  0  0  0  0  0  0  0  0
  -90.0221   24.4993    0.1873 C   0  0  0  0  0  0  0  0  0  0  0  0
  -88.6235   24.3174    0.1431 N   0  0  0  0  0  0  0  0  0  0  0  0
  -90.6815   23.9078    1.1608 N   0  0  0  0  0  0  0  0  0  0  0  0
  -88.0750   24.7176    0.9372 H   0  0  0  0  0  0  0  0  0  0  0  0
  -88.1179   23.8229   -0.6062 H   0  0  0  0  0  0  0  0  0  0  0  0
  -90.2038   23.3327    1.8757 H   0  0  0  0  0  0  0  0  0  0  0  0
  -87.5722   31.8123   -2.6316 C   0  0  0  0  0  0  0  0  0  0  0  0
  -87.8403   33.1758   -3.1799 C   0  0  0  0  0  0  0  0  0  0  0  0
  -89.1775   33.7558   -2.8226 C   0  0  0  0  0  0  0  0  0  0  0  0
  -90.2908   32.8901   -3.0531 N   0  0  0  0  0  0  0  0  0  0  0  0
  -90.6109   32.2150   -2.3302 H   0  0  0  0  0  0  0  0  0  0  0  0
  -90.9675   32.9722   -4.3186 C   0  0  0  0  0  0  0  0  0  0  0  0
  -91.9858   33.9189   -4.5092 N   0  0  0  0  0  0  0  0  0  0  0  0
  -90.6396   32.1789   -5.2766 N   0  0  0  0  0  0  0  0  0  0  0  0
  -92.9839   33.5948   -4.5912 H   0  0  0  0  0  0  0  0  0  0  0  0
  -91.7414   34.9233   -4.5674 H   0  0  0  0  0  0  0  0  0  0  0  0
  -89.9131   31.4568   -5.2394 H   0  0  0  0  0  0  0  0  0  0  0  0
  6  7  1  0  0  0
  7 10  1  0  0  0
 10 11  1  0  0  0
 11 12  2  0  0  0
 12 13  1  0  0  0
 13 14  2  0  0  0
 14 15  1  0  0  0
 15 16  2  0  0  0
  7  2  1  0  0  0
  2  3  2  0  0  0
  2  4  1  0  0  0
  4  1  1  0  0  0
  1 40  1  0  0  0
 40 41  1  0  0  0
 41 42  1  0  0  0
 42 43  1  0  0  0
 43 45  1  0  0  0
 45 46  1  0  0  0
 45 47  2  0  0  0
  1 17  1  0  0  0
 17 18  2  0  0  0
 17 19  1  0  0  0
 19 21  1  0  0  0
 21 29  1  0  0  0
 29 30  1  0  0  0
 30 31  1  0  0  0
 31 32  1  0  0  0
 32 34  1  0  0  0
 34 35  1  0  0  0
 34 36  2  0  0  0
 21 22  1  0  0  0
 22 23  2  0  0  0
 22 24  1  0  0  0
 24 25  2  0  0  0
 25 26  1  0  0  0
 26 27  2  0  0  0
 27 28  1  0  0  0
 16 11  1  0  0  0
 28 24  1  0  0  0
  6  8  1  0  0  0
  6  9  1  0  0  0
  4  5  1  0  0  0
 43 44  1  0  0  0
 46 48  1  0  0  0
 46 49  1  0  0  0
 47 50  1  0  0  0
 19 20  1  0  0  0
 32 33  1  0  0  0
 35 37  1  0  0  0
 35 38  1  0  0  0
 36 39  1  0  0  0
M  END
> <minimizedAffinity>
-8.08466

> <CNNscore>
0.1676479578

> <CNNaffinity>
6.6999573708

> <CNN_VS>
1.1232341528

> <CNNaffinity_variance>
0.3555801511

$$$$
[H]N=C(N([H])[H])N([H])C([H])([H])C([H])([H])C([H])([H])[C@@]([H])(C(=O)c1nc([H])c([H])s1)N([H])C(=O)[C@@]([H])(N([H])C(=O)[C@@]([H])(N([H])[H])C([H])([H])c1c([H])c([H])c([H])c([H])c1[H])C([H])([H])C([H])([H])C([H])([H])N([H])C(=N[H])N([H])[H]


 50 51  0  0  0  0  0  0  0  0999 V2000
  -88.1470   30.1314   -1.8436 C   0  0  0  0  0  0  0  0  0  0  0  0
  -88.8607   31.1573   -3.9776 C   0  0  0  0  0  0  0  0  0  0  0  0
  -87.6504   31.1849   -4.3607 O   0  0  0  0  0  0  0  0  0  0  0  0
  -89.2105   30.6359   -2.6996 N   0  0  0  0  0  0  0  0  0  0  0  0
  -90.2024   30.6381   -2.4328 H   0  0  0  0  0  0  0  0  0  0  0  0
  -90.9236   30.6820   -5.0636 N   0  0  0  0  0  0  0  0  0  0  0  0
  -89.9147   31.6730   -4.8714 C   0  0  0  0  0  0  0  0  0  0  0  0
  -91.4314   30.4066   -4.2134 H   0  0  0  0  0  0  0  0  0  0  0  0
  -90.4896   29.8327   -5.4869 H   0  0  0  0  0  0  0  0  0  0  0  0
  -90.4705   33.0111   -4.4326 C   0  0  0  0  0  0  0  0  0  0  0  0
  -89.4801   34.0973   -4.4324 C   0  0  0  0  0  0  0  0  0  0  0  0
  -89.0784   34.6520   -3.2401 C   0  0  0  0  0  0  0  0  0  0  0  0
  -88.1378   35.6920   -3.2076 C   0  0  0  0  0  0  0  0  0  0  0  0
  -87.6228   36.1463   -4.4008 C   0  0  0  0  0  0  0  0  0  0  0  0
  -88.0424   35.5714   -5.5945 C   0  0  0  0  0  0  0  0  0  0  0  0
  -88.9614   34.5566   -5.6244 C   0  0  0  0  0  0  0  0  0  0  0  0
  -88.3621   28.7066   -1.4926 C   0  0  0  0  0  0  0  0  0  0  0  0
  -88.7552   27.9156   -2.3903 O   0  0  0  0  0  0  0  0  0  0  0  0
  -88.1490   28.1781   -0.2071 N   0  0  0  0  0  0  0  0  0  0  0  0
  -87.8128   28.8314    0.5294 H   0  0  0  0  0  0  0  0  0  0  0  0
  -88.3493   26.7953    0.1895 C   0  0  0  0  0  0  0  0  0  0  0  0
  -89.6856   26.5678    0.7369 C   0  0  0  0  0  0  0  0  0  0  0  0
  -90.7181   26.4507    0.0094 O   0  0  0  0  0  0  0  0  0  0  0  0
  -89.8767   26.4640    2.1767 C   0  0  0  0  0  0  0  0  0  0  0  0
  -90.0366   25.3203    2.8394 N   0  0  0  0  0  0  0  0  0  0  0  0
  -90.1826   25.3270    4.1190 C   0  0  0  0  0  0  0  0  0  0  0  0
  -90.1676   26.5381    4.7655 C   0  0  0  0  0  0  0  0  0  0  0  0
  -89.9388   27.6047    3.4450 S   0  0  0  0  0  0  0  0  0  0  0  0
  -87.2421   26.4087    1.1894 C   0  0  0  0  0  0  0  0  0  0  0  0
  -86.2065   27.4715    1.2785 C   0  0  0  0  0  0  0  0  0  0  0  0
  -86.1338   28.2046    2.5666 C   0  0  0  0  0  0  0  0  0  0  0  0
  -84.8666   28.7345    2.9425 N   0  0  0  0  0  0  0  0  0  0  0  0
  -84.8905   29.6566    3.4872 H   0  0  0  0  0  0  0  0  0  0  0  0
  -83.5875   28.2136    2.6997 C   0  0  0  0  0  0  0  0  0  0  0  0
  -82.5151   28.8645    2.0538 N   0  0  0  0  0  0  0  0  0  0  0  0
  -83.3870   26.9826    3.1202 N   0  0  0  0  0  0  0  0  0  0  0  0
  -81.6686   29.0589    2.6345 H   0  0  0  0  0  0  0  0  0  0  0  0
  -82.5119   29.1529    1.0647 H   0  0  0  0  0  0  0  0  0  0  0  0
  -82.4805   26.5010    2.9927 H   0  0  0  0  0  0  0  0  0  0  0  0
  -87.9809   31.0045   -0.6160 C   0  0  0  0  0  0  0  0  0  0  0  0
  -86.6253   31.6274   -0.5383 C   0  0  0  0  0  0  0  0  0  0  0  0
  -85.5804   30.7982    0.1494 C   0  0  0  0  0  0  0  0  0  0  0  0
  -84.2313   31.1861   -0.1178 N   0  0  0  0  0  0  0  0  0  0  0  0
  -83.7514   30.9071   -0.9968 H   0  0  0  0  0  0  0  0  0  0  0  0
  -83.5429   31.9791    0.8636 C   0  0  0  0  0  0  0  0  0  0  0  0
  -83.9950   31.9986    2.1921 N   0  0  0  0  0  0  0  0  0  0  0  0
  -82.5123   32.6703    0.5251 N   0  0  0  0  0  0  0  0  0  0  0  0
  -84.4469   32.8704    2.5714 H   0  0  0  0  0  0  0  0  0  0  0  0
  -83.8774   31.1556    2.7814 H   0  0  0  0  0  0  0  0  0  0  0  0
  -82.1040   32.7234   -0.4136 H   0  0  0  0  0  0  0  0  0  0  0  0
  6  7  1  0  0  0
  7 10  1  0  0  0
 10 11  1  0  0  0
 11 12  2  0  0  0
 12 13  1  0  0  0
 13 14  2  0  0  0
 14 15  1  0  0  0
 15 16  2  0  0  0
  7  2  1  0  0  0
  2  3  2  0  0  0
  2  4  1  0  0  0
  4  1  1  0  0  0
  1 40  1  0  0  0
 40 41  1  0  0  0
 41 42  1  0  0  0
 42 43  1  0  0  0
 43 45  1  0  0  0
 45 46  1  0  0  0
 45 47  2  0  0  0
  1 17  1  0  0  0
 17 18  2  0  0  0
 17 19  1  0  0  0
 19 21  1  0  0  0
 21 29  1  0  0  0
 29 30  1  0  0  0
 30 31  1  0  0  0
 31 32  1  0  0  0
 32 34  1  0  0  0
 34 35  1  0  0  0
 34 36  2  0  0  0
 21 22  1  0  0  0
 22 23  2  0  0  0
 22 24  1  0  0  0
 24 25  2  0  0  0
 25 26  1  0  0  0
 26 27  2  0  0  0
 27 28  1  0  0  0
 16 11  1  0  0  0
 28 24  1  0  0  0
  6  8  1  0  0  0
  6  9  1  0  0  0
  4  5  1  0  0  0
 43 44  1  0  0  0
 46 48  1  0  0  0
 46 49  1  0  0  0
 47 50  1  0  0  0
 19 20  1  0  0  0
 32 33  1  0  0  0
 35 37  1  0  0  0
 35 38  1  0  0  0
 36 39  1  0  0  0
M  END
> <minimizedAffinity>
-7.13541

> <CNNscore>
0.1662575603

> <CNNaffinity>
6.7637281418

> <CNN_VS>
1.1245208979

> <CNNaffinity_variance>
0.1360357702

$$$$
[H]N=C(N([H])[H])N([H])C([H])([H])C([H])([H])C([H])([H])[C@@]([H])(C(=O)c1nc([H])c([H])s1)N([H])C(=O)[C@@]([H])(N([H])C(=O)[C@@]([H])(N([H])[H])C([H])([H])c1c([H])c([H])c([H])c([H])c1[H])C([H])([H])C([H])([H])C([H])([H])N([H])C(=N[H])N([H])[H]


 50 51  0  0  0  0  0  0  0  0999 V2000
  -87.8901   29.3199   -2.5663 C   0  0  0  0  0  0  0  0  0  0  0  0
  -87.6565   31.5520   -3.6049 C   0  0  0  0  0  0  0  0  0  0  0  0
  -87.7237   31.0161   -4.7542 O   0  0  0  0  0  0  0  0  0  0  0  0
  -87.7311   30.7596   -2.4243 N   0  0  0  0  0  0  0  0  0  0  0  0
  -87.6684   31.2380   -1.5176 H   0  0  0  0  0  0  0  0  0  0  0  0
  -86.1349   33.3437   -3.2369 N   0  0  0  0  0  0  0  0  0  0  0  0
  -87.4992   33.0146   -3.4963 C   0  0  0  0  0  0  0  0  0  0  0  0
  -85.4739   33.0769   -3.9775 H   0  0  0  0  0  0  0  0  0  0  0  0
  -85.8403   32.8921   -2.3435 H   0  0  0  0  0  0  0  0  0  0  0  0
  -88.0800   33.7687   -4.6735 C   0  0  0  0  0  0  0  0  0  0  0  0
  -87.9782   35.2303   -4.5546 C   0  0  0  0  0  0  0  0  0  0  0  0
  -88.5419   35.8663   -3.4736 C   0  0  0  0  0  0  0  0  0  0  0  0
  -88.4645   37.2598   -3.3341 C   0  0  0  0  0  0  0  0  0  0  0  0
  -87.8080   37.9796   -4.3068 C   0  0  0  0  0  0  0  0  0  0  0  0
  -87.2452   37.3169   -5.3909 C   0  0  0  0  0  0  0  0  0  0  0  0
  -87.3224   35.9563   -5.5260 C   0  0  0  0  0  0  0  0  0  0  0  0
  -89.3010   28.9073   -2.3698 C   0  0  0  0  0  0  0  0  0  0  0  0
  -90.1697   29.7979   -2.1746 O   0  0  0  0  0  0  0  0  0  0  0  0
  -89.7339   27.5695   -2.3913 N   0  0  0  0  0  0  0  0  0  0  0  0
  -89.0160   26.8368   -2.5647 H   0  0  0  0  0  0  0  0  0  0  0  0
  -91.0991   27.1127   -2.1995 C   0  0  0  0  0  0  0  0  0  0  0  0
  -91.2277   26.2352   -1.0372 C   0  0  0  0  0  0  0  0  0  0  0  0
  -91.5415   25.0097   -1.1298 O   0  0  0  0  0  0  0  0  0  0  0  0
  -90.9907   26.7572    0.3013 C   0  0  0  0  0  0  0  0  0  0  0  0
  -90.5763   26.0292    1.3362 N   0  0  0  0  0  0  0  0  0  0  0  0
  -90.3777   26.5838    2.4814 C   0  0  0  0  0  0  0  0  0  0  0  0
  -90.6051   27.9330    2.5950 C   0  0  0  0  0  0  0  0  0  0  0  0
  -91.1023   28.3106    0.9999 S   0  0  0  0  0  0  0  0  0  0  0  0
  -91.5713   26.4264   -3.4961 C   0  0  0  0  0  0  0  0  0  0  0  0
  -92.4749   27.3150   -4.2734 C   0  0  0  0  0  0  0  0  0  0  0  0
  -93.1203   28.4140   -3.5135 C   0  0  0  0  0  0  0  0  0  0  0  0
  -92.6977   29.7421   -3.8058 N   0  0  0  0  0  0  0  0  0  0  0  0
  -92.7531   30.4378   -2.9931 H   0  0  0  0  0  0  0  0  0  0  0  0
  -92.2151   30.2666   -5.0134 C   0  0  0  0  0  0  0  0  0  0  0  0
  -92.9600   30.5255   -6.1835 N   0  0  0  0  0  0  0  0  0  0  0  0
  -90.9264   30.5330   -5.0416 N   0  0  0  0  0  0  0  0  0  0  0  0
  -93.0377   31.5255   -6.4762 H   0  0  0  0  0  0  0  0  0  0  0  0
  -93.4216   29.8059   -6.7584 H   0  0  0  0  0  0  0  0  0  0  0  0
  -90.4659   30.9225   -5.8820 H   0  0  0  0  0  0  0  0  0  0  0  0
  -86.9430   28.5777   -1.6448 C   0  0  0  0  0  0  0  0  0  0  0  0
  -86.9978   29.0859   -0.2411 C   0  0  0  0  0  0  0  0  0  0  0  0
  -85.6915   29.0636    0.4972 C   0  0  0  0  0  0  0  0  0  0  0  0
  -84.7544   30.0643    0.0942 N   0  0  0  0  0  0  0  0  0  0  0  0
  -83.9663   29.8418   -0.5464 H   0  0  0  0  0  0  0  0  0  0  0  0
  -84.9250   31.3999    0.5970 C   0  0  0  0  0  0  0  0  0  0  0  0
  -84.6866   31.6748    1.9525 N   0  0  0  0  0  0  0  0  0  0  0  0
  -85.2952   32.3436   -0.1949 N   0  0  0  0  0  0  0  0  0  0  0  0
  -85.4981   31.8964    2.5853 H   0  0  0  0  0  0  0  0  0  0  0  0
  -83.7158   31.6566    2.3115 H   0  0  0  0  0  0  0  0  0  0  0  0
  -85.4931   32.2475   -1.1961 H   0  0  0  0  0  0  0  0  0  0  0  0
  6  7  1  0  0  0
  7 10  1  0  0  0
 10 11  1  0  0  0
 11 12  2  0  0  0
 12 13  1  0  0  0
 13 14  2  0  0  0
 14 15  1  0  0  0
 15 16  2  0  0  0
  7  2  1  0  0  0
  2  3  2  0  0  0
  2  4  1  0  0  0
  4  1  1  0  0  0
  1 40  1  0  0  0
 40 41  1  0  0  0
 41 42  1  0  0  0
 42 43  1  0  0  0
 43 45  1  0  0  0
 45 46  1  0  0  0
 45 47  2  0  0  0
  1 17  1  0  0  0
 17 18  2  0  0  0
 17 19  1  0  0  0
 19 21  1  0  0  0
 21 29  1  0  0  0
 29 30  1  0  0  0
 30 31  1  0  0  0
 31 32  1  0  0  0
 32 34  1  0  0  0
 34 35  1  0  0  0
 34 36  2  0  0  0
 21 22  1  0  0  0
 22 23  2  0  0  0
 22 24  1  0  0  0
 24 25  2  0  0  0
 25 26  1  0  0  0
 26 27  2  0  0  0
 27 28  1  0  0  0
 16 11  1  0  0  0
 28 24  1  0  0  0
  6  8  1  0  0  0
  6  9  1  0  0  0
  4  5  1  0  0  0
 43 44  1  0  0  0
 46 48  1  0  0  0
 46 49  1  0  0  0
 47 50  1  0  0  0
 19 20  1  0  0  0
 32 33  1  0  0  0
 35 37  1  0  0  0
 35 38  1  0  0  0
 36 39  1  0  0  0
M  END
> <minimizedAffinity>
-6.73278

> <CNNscore>
0.1406697631

> <CNNaffinity>
6.2869062424

> <CNN_VS>
0.8843775988

> <CNNaffinity_variance>
0.2217328995

$$$$
[H]N=C(N([H])[H])N([H])C([H])([H])C([H])([H])C([H])([H])[C@@]([H])(C(=O)c1nc([H])c([H])s1)N([H])C(=O)[C@@]([H])(N([H])C(=O)[C@@]([H])(N([H])[H])C([H])([H])c1c([H])c([H])c([H])c([H])c1[H])C([H])([H])C([H])([H])C([H])([H])N([H])C(=N[H])N([H])[H]


 50 51  0  0  0  0  0  0  0  0999 V2000
  -87.5591   32.7626   -1.4780 C   0  0  0  0  0  0  0  0  0  0  0  0
  -85.3727   32.8880   -0.3292 C   0  0  0  0  0  0  0  0  0  0  0  0
  -85.6652   34.0524    0.0845 O   0  0  0  0  0  0  0  0  0  0  0  0
  -86.2829   32.1507   -1.1388 N   0  0  0  0  0  0  0  0  0  0  0  0
  -86.0000   31.2143   -1.4522 H   0  0  0  0  0  0  0  0  0  0  0  0
  -83.0089   33.0469   -0.5480 N   0  0  0  0  0  0  0  0  0  0  0  0
  -84.0723   32.2954    0.0362 C   0  0  0  0  0  0  0  0  0  0  0  0
  -82.9368   34.0211   -0.2282 H   0  0  0  0  0  0  0  0  0  0  0  0
  -83.1181   33.0401   -1.5857 H   0  0  0  0  0  0  0  0  0  0  0  0
  -83.9059   32.0881    1.5266 C   0  0  0  0  0  0  0  0  0  0  0  0
  -83.8560   30.6756    1.9305 C   0  0  0  0  0  0  0  0  0  0  0  0
  -82.7033   29.9520    1.7349 C   0  0  0  0  0  0  0  0  0  0  0  0
  -82.6260   28.6017    2.1066 C   0  0  0  0  0  0  0  0  0  0  0  0
  -83.7341   28.0148    2.6750 C   0  0  0  0  0  0  0  0  0  0  0  0
  -84.8889   28.7645    2.8639 C   0  0  0  0  0  0  0  0  0  0  0  0
  -84.9628   30.0826    2.4997 C   0  0  0  0  0  0  0  0  0  0  0  0
  -88.6636   31.7738   -1.4368 C   0  0  0  0  0  0  0  0  0  0  0  0
  -89.7694   32.1228   -0.9456 O   0  0  0  0  0  0  0  0  0  0  0  0
  -88.5523   30.4579   -1.9201 N   0  0  0  0  0  0  0  0  0  0  0  0
  -87.6414   30.1761   -2.3362 H   0  0  0  0  0  0  0  0  0  0  0  0
  -89.5990   29.4512   -1.8987 C   0  0  0  0  0  0  0  0  0  0  0  0
  -90.5573   29.6303   -2.9880 C   0  0  0  0  0  0  0  0  0  0  0  0
  -90.2418   30.1353   -4.1080 O   0  0  0  0  0  0  0  0  0  0  0  0
  -91.9439   29.2206   -2.8152 C   0  0  0  0  0  0  0  0  0  0  0  0
  -92.9729   30.0578   -2.7016 N   0  0  0  0  0  0  0  0  0  0  0  0
  -94.1695   29.6007   -2.5683 C   0  0  0  0  0  0  0  0  0  0  0  0
  -94.3433   28.2389   -2.5479 C   0  0  0  0  0  0  0  0  0  0  0  0
  -92.7253   27.7057   -2.7264 S   0  0  0  0  0  0  0  0  0  0  0  0
  -90.2817   29.4857   -0.5174 C   0  0  0  0  0  0  0  0  0  0  0  0
  -89.5954   28.5804    0.4415 C   0  0  0  0  0  0  0  0  0  0  0  0
  -90.2468   27.2686    0.6799 C   0  0  0  0  0  0  0  0  0  0  0  0
  -89.3948   26.1373    0.8291 N   0  0  0  0  0  0  0  0  0  0  0  0
  -89.1840   25.8430    1.8374 H   0  0  0  0  0  0  0  0  0  0  0  0
  -88.7936   25.3511   -0.1641 C   0  0  0  0  0  0  0  0  0  0  0  0
  -88.1064   25.8091   -1.3082 N   0  0  0  0  0  0  0  0  0  0  0  0
  -88.8977   24.0495    0.0020 N   0  0  0  0  0  0  0  0  0  0  0  0
  -87.0869   25.5867   -1.3611 H   0  0  0  0  0  0  0  0  0  0  0  0
  -88.5371   26.3368   -2.0813 H   0  0  0  0  0  0  0  0  0  0  0  0
  -88.4911   23.3772   -0.6707 H   0  0  0  0  0  0  0  0  0  0  0  0
  -87.4789   33.4759   -2.8129 C   0  0  0  0  0  0  0  0  0  0  0  0
  -88.5134   34.5447   -2.9515 C   0  0  0  0  0  0  0  0  0  0  0  0
  -88.0629   35.7787   -3.6769 C   0  0  0  0  0  0  0  0  0  0  0  0
  -87.3611   35.5374   -4.8981 N   0  0  0  0  0  0  0  0  0  0  0  0
  -87.3051   34.5852   -5.3116 H   0  0  0  0  0  0  0  0  0  0  0  0
  -86.7271   36.6498   -5.5513 C   0  0  0  0  0  0  0  0  0  0  0  0
  -86.9043   36.8478   -6.9293 N   0  0  0  0  0  0  0  0  0  0  0  0
  -85.9982   37.4644   -4.8732 N   0  0  0  0  0  0  0  0  0  0  0  0
  -86.0968   36.6800   -7.5835 H   0  0  0  0  0  0  0  0  0  0  0  0
  -87.8266   37.1568   -7.2838 H   0  0  0  0  0  0  0  0  0  0  0  0
  -85.8073   37.4084   -3.8676 H   0  0  0  0  0  0  0  0  0  0  0  0
  6  7  1  0  0  0
  7 10  1  0  0  0
 10 11  1  0  0  0
 11 12  2  0  0  0
 12 13  1  0  0  0
 13 14  2  0  0  0
 14 15  1  0  0  0
 15 16  2  0  0  0
  7  2  1  0  0  0
  2  3  2  0  0  0
  2  4  1  0  0  0
  4  1  1  0  0  0
  1 40  1  0  0  0
 40 41  1  0  0  0
 41 42  1  0  0  0
 42 43  1  0  0  0
 43 45  1  0  0  0
 45 46  1  0  0  0
 45 47  2  0  0  0
  1 17  1  0  0  0
 17 18  2  0  0  0
 17 19  1  0  0  0
 19 21  1  0  0  0
 21 29  1  0  0  0
 29 30  1  0  0  0
 30 31  1  0  0  0
 31 32  1  0  0  0
 32 34  1  0  0  0
 34 35  1  0  0  0
 34 36  2  0  0  0
 21 22  1  0  0  0
 22 23  2  0  0  0
 22 24  1  0  0  0
 24 25  2  0  0  0
 25 26  1  0  0  0
 26 27  2  0  0  0
 27 28  1  0  0  0
 16 11  1  0  0  0
 28 24  1  0  0  0
  6  8  1  0  0  0
  6  9  1  0  0  0
  4  5  1  0  0  0
 43 44  1  0  0  0
 46 48  1  0  0  0
 46 49  1  0  0  0
 47 50  1  0  0  0
 19 20  1  0  0  0
 32 33  1  0  0  0
 35 37  1  0  0  0
 35 38  1  0  0  0
 36 39  1  0  0  0
M  END
> <minimizedAffinity>
-7.79153

> <CNNscore>
0.1345419288

> <CNNaffinity>
6.4505462646

> <CNN_VS>
0.8678689599

> <CNNaffinity_variance>
0.3534802198

$$$$
[H]N=C(N([H])[H])N([H])C([H])([H])C([H])([H])C([H])([H])[C@@]([H])(C(=O)c1nc([H])c([H])s1)N([H])C(=O)[C@@]([H])(N([H])C(=O)[C@@]([H])(N([H])[H])C([H])([H])c1c([H])c([H])c([H])c([H])c1[H])C([H])([H])C([H])([H])C([H])([H])N([H])C(=N[H])N([H])[H]


 50 51  0  0  0  0  0  0  0  0999 V2000
  -87.4439   32.8679   -1.1299 C   0  0  0  0  0  0  0  0  0  0  0  0
  -85.0794   32.8724   -0.4055 C   0  0  0  0  0  0  0  0  0  0  0  0
  -85.0054   34.1101   -0.6797 O   0  0  0  0  0  0  0  0  0  0  0  0
  -86.2907   32.1512   -0.6061 N   0  0  0  0  0  0  0  0  0  0  0  0
  -86.3006   31.1509   -0.3730 H   0  0  0  0  0  0  0  0  0  0  0  0
  -82.7037   32.8537   -0.2781 N   0  0  0  0  0  0  0  0  0  0  0  0
  -83.8929   32.1770    0.1277 C   0  0  0  0  0  0  0  0  0  0  0  0
  -82.6076   33.8147    0.0738 H   0  0  0  0  0  0  0  0  0  0  0  0
  -82.6611   32.8707   -1.3205 H   0  0  0  0  0  0  0  0  0  0  0  0
  -83.9605   31.9354    1.6206 C   0  0  0  0  0  0  0  0  0  0  0  0
  -83.8697   30.5183    2.0004 C   0  0  0  0  0  0  0  0  0  0  0  0
  -82.6926   29.8351    1.8048 C   0  0  0  0  0  0  0  0  0  0  0  0
  -82.5762   28.4816    2.1537 C   0  0  0  0  0  0  0  0  0  0  0  0
  -83.6708   27.8499    2.6997 C   0  0  0  0  0  0  0  0  0  0  0  0
  -84.8508   28.5591    2.8890 C   0  0  0  0  0  0  0  0  0  0  0  0
  -84.9629   29.8804    2.5471 C   0  0  0  0  0  0  0  0  0  0  0  0
  -88.7007   32.1137   -0.9040 C   0  0  0  0  0  0  0  0  0  0  0  0
  -89.6395   32.6761   -0.2808 O   0  0  0  0  0  0  0  0  0  0  0  0
  -88.9124   30.7970   -1.3499 N   0  0  0  0  0  0  0  0  0  0  0  0
  -88.1396   30.3392   -1.8749 H   0  0  0  0  0  0  0  0  0  0  0  0
  -90.1191   30.0137   -1.1508 C   0  0  0  0  0  0  0  0  0  0  0  0
  -90.0730   29.2367    0.0867 C   0  0  0  0  0  0  0  0  0  0  0  0
  -90.8499   29.4525    1.0658 O   0  0  0  0  0  0  0  0  0  0  0  0
  -89.1058   28.1585    0.2360 C   0  0  0  0  0  0  0  0  0  0  0  0
  -87.7842   28.3153    0.1973 N   0  0  0  0  0  0  0  0  0  0  0  0
  -87.0057   27.3018    0.3564 C   0  0  0  0  0  0  0  0  0  0  0  0
  -87.5793   26.0718    0.5644 C   0  0  0  0  0  0  0  0  0  0  0  0
  -89.2421   26.4797    0.5128 S   0  0  0  0  0  0  0  0  0  0  0  0
  -90.3300   29.1183   -2.3873 C   0  0  0  0  0  0  0  0  0  0  0  0
  -91.5844   29.4768   -3.1000 C   0  0  0  0  0  0  0  0  0  0  0  0
  -91.6086   30.8130   -3.7449 C   0  0  0  0  0  0  0  0  0  0  0  0
  -90.8406   30.9755   -4.9331 N   0  0  0  0  0  0  0  0  0  0  0  0
  -91.2632   30.5527   -5.8221 H   0  0  0  0  0  0  0  0  0  0  0  0
  -89.6050   31.6165   -5.1017 C   0  0  0  0  0  0  0  0  0  0  0  0
  -88.3284   31.0851   -4.8206 N   0  0  0  0  0  0  0  0  0  0  0  0
  -89.6626   32.8468   -5.5660 N   0  0  0  0  0  0  0  0  0  0  0  0
  -87.6890   30.9493   -5.6357 H   0  0  0  0  0  0  0  0  0  0  0  0
  -87.9914   30.8292   -3.8812 H   0  0  0  0  0  0  0  0  0  0  0  0
  -88.8113   33.4116   -5.7279 H   0  0  0  0  0  0  0  0  0  0  0  0
  -87.2433   33.2217   -2.5899 C   0  0  0  0  0  0  0  0  0  0  0  0
  -87.8589   34.5348   -2.9484 C   0  0  0  0  0  0  0  0  0  0  0  0
  -87.1490   35.2992   -4.0272 C   0  0  0  0  0  0  0  0  0  0  0  0
  -87.8717   35.4222   -5.2538 N   0  0  0  0  0  0  0  0  0  0  0  0
  -87.6242   34.8529   -6.0878 H   0  0  0  0  0  0  0  0  0  0  0  0
  -88.9605   36.3587   -5.3125 C   0  0  0  0  0  0  0  0  0  0  0  0
  -90.2291   35.9337   -5.7363 N   0  0  0  0  0  0  0  0  0  0  0  0
  -88.7729   37.5860   -4.9760 N   0  0  0  0  0  0  0  0  0  0  0  0
  -90.5957   36.2526   -6.6701 H   0  0  0  0  0  0  0  0  0  0  0  0
  -90.7876   35.3128   -5.1244 H   0  0  0  0  0  0  0  0  0  0  0  0
  -87.8896   37.9944   -4.6539 H   0  0  0  0  0  0  0  0  0  0  0  0
  6  7  1  0  0  0
  7 10  1  0  0  0
 10 11  1  0  0  0
 11 12  2  0  0  0
 12 13  1  0  0  0
 13 14  2  0  0  0
 14 15  1  0  0  0
 15 16  2  0  0  0
  7  2  1  0  0  0
  2  3  2  0  0  0
  2  4  1  0  0  0
  4  1  1  0  0  0
  1 40  1  0  0  0
 40 41  1  0  0  0
 41 42  1  0  0  0
 42 43  1  0  0  0
 43 45  1  0  0  0
 45 46  1  0  0  0
 45 47  2  0  0  0
  1 17  1  0  0  0
 17 18  2  0  0  0
 17 19  1  0  0  0
 19 21  1  0  0  0
 21 29  1  0  0  0
 29 30  1  0  0  0
 30 31  1  0  0  0
 31 32  1  0  0  0
 32 34  1  0  0  0
 34 35  1  0  0  0
 34 36  2  0  0  0
 21 22  1  0  0  0
 22 23  2  0  0  0
 22 24  1  0  0  0
 24 25  2  0  0  0
 25 26  1  0  0  0
 26 27  2  0  0  0
 27 28  1  0  0  0
 16 11  1  0  0  0
 28 24  1  0  0  0
  6  8  1  0  0  0
  6  9  1  0  0  0
  4  5  1  0  0  0
 43 44  1  0  0  0
 46 48  1  0  0  0
 46 49  1  0  0  0
 47 50  1  0  0  0
 19 20  1  0  0  0
 32 33  1  0  0  0
 35 37  1  0  0  0
 35 38  1  0  0  0
 36 39  1  0  0  0
M  END
> <minimizedAffinity>
-7.42397

> <CNNscore>
0.1146629304

> <CNNaffinity>
6.3686447144

> <CNN_VS>
0.7302474380

> <CNNaffinity_variance>
0.2768641114

$$$$
[H]N=C(N([H])[H])N([H])C([H])([H])C([H])([H])C([H])([H])[C@@]([H])(C(=O)c1nc([H])c([H])s1)N([H])C(=O)[C@@]([H])(N([H])C(=O)[C@@]([H])(N([H])[H])C([H])([H])c1c([H])c([H])c([H])c([H])c1[H])C([H])([H])C([H])([H])C([H])([H])N([H])C(=N[H])N([H])[H]


 50 51  0  0  0  0  0  0  0  0999 V2000
  -87.5975   31.9315   -1.2075 C   0  0  0  0  0  0  0  0  0  0  0  0
  -85.3886   32.6107   -0.3269 C   0  0  0  0  0  0  0  0  0  0  0  0
  -85.8146   33.7998   -0.1962 O   0  0  0  0  0  0  0  0  0  0  0  0
  -86.2326   31.5849   -0.8398 N   0  0  0  0  0  0  0  0  0  0  0  0
  -85.8418   30.6394   -0.9306 H   0  0  0  0  0  0  0  0  0  0  0  0
  -83.1100   33.2838   -0.4513 N   0  0  0  0  0  0  0  0  0  0  0  0
  -84.0010   32.2925    0.0589 C   0  0  0  0  0  0  0  0  0  0  0  0
  -83.2583   34.2328   -0.0853 H   0  0  0  0  0  0  0  0  0  0  0  0
  -83.1879   33.3078   -1.4915 H   0  0  0  0  0  0  0  0  0  0  0  0
  -83.8329   32.0484    1.5435 C   0  0  0  0  0  0  0  0  0  0  0  0
  -83.8320   30.6269    1.9180 C   0  0  0  0  0  0  0  0  0  0  0  0
  -82.6774   29.8907    1.7930 C   0  0  0  0  0  0  0  0  0  0  0  0
  -82.6460   28.5318    2.1388 C   0  0  0  0  0  0  0  0  0  0  0  0
  -83.8012   27.9492    2.6092 C   0  0  0  0  0  0  0  0  0  0  0  0
  -84.9571   28.7116    2.7279 C   0  0  0  0  0  0  0  0  0  0  0  0
  -84.9861   30.0381    2.3891 C   0  0  0  0  0  0  0  0  0  0  0  0
  -88.4755   30.7364   -1.2240 C   0  0  0  0  0  0  0  0  0  0  0  0
  -89.6264   30.8388   -1.7249 O   0  0  0  0  0  0  0  0  0  0  0  0
  -88.0975   29.4822   -0.7125 N   0  0  0  0  0  0  0  0  0  0  0  0
  -87.1419   29.3976   -0.3102 H   0  0  0  0  0  0  0  0  0  0  0  0
  -88.9192   28.2848   -0.6993 C   0  0  0  0  0  0  0  0  0  0  0  0
  -88.6492   27.4447    0.4662 C   0  0  0  0  0  0  0  0  0  0  0  0
  -87.7854   26.5158    0.4615 O   0  0  0  0  0  0  0  0  0  0  0  0
  -89.3846   27.6567    1.7050 C   0  0  0  0  0  0  0  0  0  0  0  0
  -88.9403   27.3265    2.9160 N   0  0  0  0  0  0  0  0  0  0  0  0
  -89.6569   27.5690    3.9582 C   0  0  0  0  0  0  0  0  0  0  0  0
  -90.8774   28.1714    3.7783 C   0  0  0  0  0  0  0  0  0  0  0  0
  -90.9012   28.3470    2.0746 S   0  0  0  0  0  0  0  0  0  0  0  0
  -88.6975   27.5256   -2.0221 C   0  0  0  0  0  0  0  0  0  0  0  0
  -89.9930   27.1495   -2.6469 C   0  0  0  0  0  0  0  0  0  0  0  0
  -91.2060   27.7629   -2.0520 C   0  0  0  0  0  0  0  0  0  0  0  0
  -91.8627   28.7732   -2.8111 N   0  0  0  0  0  0  0  0  0  0  0  0
  -91.5303   28.8850   -3.8233 H   0  0  0  0  0  0  0  0  0  0  0  0
  -92.8892   29.6431   -2.4166 C   0  0  0  0  0  0  0  0  0  0  0  0
  -94.1329   29.2872   -1.8530 N   0  0  0  0  0  0  0  0  0  0  0  0
  -92.6520   30.9238   -2.6063 N   0  0  0  0  0  0  0  0  0  0  0  0
  -94.3085   29.6013   -0.8721 H   0  0  0  0  0  0  0  0  0  0  0  0
  -94.8663   28.7497   -2.3377 H   0  0  0  0  0  0  0  0  0  0  0  0
  -93.3408   31.6521   -2.3515 H   0  0  0  0  0  0  0  0  0  0  0  0
  -87.6288   32.6830   -2.5232 C   0  0  0  0  0  0  0  0  0  0  0  0
  -88.5163   33.8836   -2.4732 C   0  0  0  0  0  0  0  0  0  0  0  0
  -89.4963   34.0004   -3.6038 C   0  0  0  0  0  0  0  0  0  0  0  0
  -90.5099   32.9934   -3.6290 N   0  0  0  0  0  0  0  0  0  0  0  0
  -91.1429   32.8415   -2.8184 H   0  0  0  0  0  0  0  0  0  0  0  0
  -90.6389   32.1856   -4.8109 C   0  0  0  0  0  0  0  0  0  0  0  0
  -91.1003   32.7594   -6.0057 N   0  0  0  0  0  0  0  0  0  0  0  0
  -90.3310   30.9372   -4.7742 N   0  0  0  0  0  0  0  0  0  0  0  0
  -92.0568   32.5062   -6.3649 H   0  0  0  0  0  0  0  0  0  0  0  0
  -90.4934   33.4235   -6.5180 H   0  0  0  0  0  0  0  0  0  0  0  0
  -89.9861   30.4252   -3.9559 H   0  0  0  0  0  0  0  0  0  0  0  0
  6  7  1  0  0  0
  7 10  1  0  0  0
 10 11  1  0  0  0
 11 12  2  0  0  0
 12 13  1  0  0  0
 13 14  2  0  0  0
 14 15  1  0  0  0
 15 16  2  0  0  0
  7  2  1  0  0  0
  2  3  2  0  0  0
  2  4  1  0  0  0
  4  1  1  0  0  0
  1 40  1  0  0  0
 40 41  1  0  0  0
 41 42  1  0  0  0
 42 43  1  0  0  0
 43 45  1  0  0  0
 45 46  1  0  0  0
 45 47  2  0  0  0
  1 17  1  0  0  0
 17 18  2  0  0  0
 17 19  1  0  0  0
 19 21  1  0  0  0
 21 29  1  0  0  0
 29 30  1  0  0  0
 30 31  1  0  0  0
 31 32  1  0  0  0
 32 34  1  0  0  0
 34 35  1  0  0  0
 34 36  2  0  0  0
 21 22  1  0  0  0
 22 23  2  0  0  0
 22 24  1  0  0  0
 24 25  2  0  0  0
 25 26  1  0  0  0
 26 27  2  0  0  0
 27 28  1  0  0  0
 16 11  1  0  0  0
 28 24  1  0  0  0
  6  8  1  0  0  0
  6  9  1  0  0  0
  4  5  1  0  0  0
 43 44  1  0  0  0
 46 48  1  0  0  0
 46 49  1  0  0  0
 47 50  1  0  0  0
 19 20  1  0  0  0
 32 33  1  0  0  0
 35 37  1  0  0  0
 35 38  1  0  0  0
 36 39  1  0  0  0
M  END
> <minimizedAffinity>
-7.86680

> <CNNscore>
0.1076468453

> <CNNaffinity>
6.4638428688

> <CNN_VS>
0.6958122849

> <CNNaffinity_variance>
0.3040941358

$$$$
[H]N=C(N([H])[H])N([H])C([H])([H])C([H])([H])C([H])([H])[C@@]([H])(C(=O)c1nc([H])c([H])s1)N([H])C(=O)[C@@]([H])(N([H])C(=O)[C@@]([H])(N([H])[H])C([H])([H])c1c([H])c([H])c([H])c([H])c1[H])C([H])([H])C([H])([H])C([H])([H])N([H])C(=N[H])N([H])[H]


 50 51  0  0  0  0  0  0  0  0999 V2000
  -87.7102   32.1316   -1.0825 C   0  0  0  0  0  0  0  0  0  0  0  0
  -85.4254   32.6596   -0.2971 C   0  0  0  0  0  0  0  0  0  0  0  0
  -85.7423   33.8871   -0.2235 O   0  0  0  0  0  0  0  0  0  0  0  0
  -86.3703   31.6862   -0.7299 N   0  0  0  0  0  0  0  0  0  0  0  0
  -86.0661   30.7063   -0.7766 H   0  0  0  0  0  0  0  0  0  0  0  0
  -83.1047   33.1566   -0.4640 N   0  0  0  0  0  0  0  0  0  0  0  0
  -84.0598   32.2412    0.0714 C   0  0  0  0  0  0  0  0  0  0  0  0
  -83.1749   34.1180   -0.1072 H   0  0  0  0  0  0  0  0  0  0  0  0
  -83.1971   33.1752   -1.5032 H   0  0  0  0  0  0  0  0  0  0  0  0
  -83.8870   32.0011    1.5561 C   0  0  0  0  0  0  0  0  0  0  0  0
  -83.8528   30.5800    1.9306 C   0  0  0  0  0  0  0  0  0  0  0  0
  -84.9885   29.9768    2.4175 C   0  0  0  0  0  0  0  0  0  0  0  0
  -84.9863   28.6236    2.7865 C   0  0  0  0  0  0  0  0  0  0  0  0
  -83.8173   27.9095    2.6488 C   0  0  0  0  0  0  0  0  0  0  0  0
  -82.6811   28.5386    2.1544 C   0  0  0  0  0  0  0  0  0  0  0  0
  -82.6848   29.8601    1.7953 C   0  0  0  0  0  0  0  0  0  0  0  0
  -88.7443   31.1985   -0.5732 C   0  0  0  0  0  0  0  0  0  0  0  0
  -89.9363   31.5984   -0.5009 O   0  0  0  0  0  0  0  0  0  0  0  0
  -88.4741   29.8803   -0.1650 N   0  0  0  0  0  0  0  0  0  0  0  0
  -87.4906   29.5489   -0.2372 H   0  0  0  0  0  0  0  0  0  0  0  0
  -89.4468   28.9300    0.3450 C   0  0  0  0  0  0  0  0  0  0  0  0
  -88.8174   27.8552    1.1103 C   0  0  0  0  0  0  0  0  0  0  0  0
  -87.7173   27.3213    0.7730 O   0  0  0  0  0  0  0  0  0  0  0  0
  -89.4527   27.3515    2.3198 C   0  0  0  0  0  0  0  0  0  0  0  0
  -89.2020   26.1650    2.8696 N   0  0  0  0  0  0  0  0  0  0  0  0
  -89.8027   25.8120    3.9527 C   0  0  0  0  0  0  0  0  0  0  0  0
  -90.6978   26.6904    4.5118 C   0  0  0  0  0  0  0  0  0  0  0  0
  -90.6040   27.9935    3.4041 S   0  0  0  0  0  0  0  0  0  0  0  0
  -90.2695   28.3893   -0.8408 C   0  0  0  0  0  0  0  0  0  0  0  0
  -91.2588   27.3762   -0.3878 C   0  0  0  0  0  0  0  0  0  0  0  0
  -91.4977   26.2398   -1.3116 C   0  0  0  0  0  0  0  0  0  0  0  0
  -90.7057   25.0713   -1.1234 N   0  0  0  0  0  0  0  0  0  0  0  0
  -91.2286   24.1387   -1.1897 H   0  0  0  0  0  0  0  0  0  0  0  0
  -89.3311   24.9720   -0.8648 C   0  0  0  0  0  0  0  0  0  0  0  0
  -88.2793   25.4601   -1.6688 N   0  0  0  0  0  0  0  0  0  0  0  0
  -89.0067   24.3475    0.2475 N   0  0  0  0  0  0  0  0  0  0  0  0
  -87.6904   26.2189   -1.2576 H   0  0  0  0  0  0  0  0  0  0  0  0
  -88.0571   25.1216   -2.6162 H   0  0  0  0  0  0  0  0  0  0  0  0
  -88.0217   24.2173    0.5353 H   0  0  0  0  0  0  0  0  0  0  0  0
  -87.8292   32.3579   -2.5764 C   0  0  0  0  0  0  0  0  0  0  0  0
  -87.7647   31.0835   -3.3532 C   0  0  0  0  0  0  0  0  0  0  0  0
  -88.3568   31.1451   -4.7307 C   0  0  0  0  0  0  0  0  0  0  0  0
  -89.5703   31.8931   -4.8320 N   0  0  0  0  0  0  0  0  0  0  0  0
  -89.5812   32.8578   -5.2194 H   0  0  0  0  0  0  0  0  0  0  0  0
  -90.7895   31.2782   -4.3832 C   0  0  0  0  0  0  0  0  0  0  0  0
  -91.4190   31.7388   -3.2165 N   0  0  0  0  0  0  0  0  0  0  0  0
  -91.3043   30.3067   -5.0508 N   0  0  0  0  0  0  0  0  0  0  0  0
  -91.4144   31.1351   -2.3542 H   0  0  0  0  0  0  0  0  0  0  0  0
  -91.8801   32.6657   -3.2199 H   0  0  0  0  0  0  0  0  0  0  0  0
  -90.9250   29.8990   -5.9114 H   0  0  0  0  0  0  0  0  0  0  0  0
  6  7  1  0  0  0
  7 10  1  0  0  0
 10 11  1  0  0  0
 11 12  2  0  0  0
 12 13  1  0  0  0
 13 14  2  0  0  0
 14 15  1  0  0  0
 15 16  2  0  0  0
  7  2  1  0  0  0
  2  3  2  0  0  0
  2  4  1  0  0  0
  4  1  1  0  0  0
  1 40  1  0  0  0
 40 41  1  0  0  0
 41 42  1  0  0  0
 42 43  1  0  0  0
 43 45  1  0  0  0
 45 46  1  0  0  0
 45 47  2  0  0  0
  1 17  1  0  0  0
 17 18  2  0  0  0
 17 19  1  0  0  0
 19 21  1  0  0  0
 21 29  1  0  0  0
 29 30  1  0  0  0
 30 31  1  0  0  0
 31 32  1  0  0  0
 32 34  1  0  0  0
 34 35  1  0  0  0
 34 36  2  0  0  0
 21 22  1  0  0  0
 22 23  2  0  0  0
 22 24  1  0  0  0
 24 25  2  0  0  0
 25 26  1  0  0  0
 26 27  2  0  0  0
 27 28  1  0  0  0
 16 11  1  0  0  0
 28 24  1  0  0  0
  6  8  1  0  0  0
  6  9  1  0  0  0
  4  5  1  0  0  0
 43 44  1  0  0  0
 46 48  1  0  0  0
 46 49  1  0  0  0
 47 50  1  0  0  0
 19 20  1  0  0  0
 32 33  1  0  0  0
 35 37  1  0  0  0
 35 38  1  0  0  0
 36 39  1  0  0  0
M  END
> <minimizedAffinity>
-8.34552

> <CNNscore>
0.1058338284

> <CNNaffinity>
6.2710027695

> <CNN_VS>
0.6636842489

> <CNNaffinity_variance>
0.9918514490

$$$$
[H]OC(=O)C([H])([H])[C@@]([H])(C(=O)O[H])N([H])C(=O)[C@@]([H])(N([H])C(=O)[C@@]([H])(N([H])C(=O)[C@@]([H])(N([H])[H])[C@]([H])(C([H])([H])[H])C([H])([H])C([H])([H])[H])C([H])([H])C(=O)O[H])C([H])([H])c1c([H])c([H])c(O[H])c([H])c1[H]


 46 46  0  0  0  0  0  0  0  0999 V2000
  -86.2868   31.5618    0.0101 C   0  0  0  0  0  0  0  0  0  0  0  0
  -87.5016   29.4739   -0.5543 C   0  0  0  0  0  0  0  0  0  0  0  0
  -88.5078   30.0228    0.0389 O   0  0  0  0  0  0  0  0  0  0  0  0
  -86.3423   30.2077   -0.5949 N   0  0  0  0  0  0  0  0  0  0  0  0
  -85.4695   29.9061   -1.0361 H   0  0  0  0  0  0  0  0  0  0  0  0
  -87.8017   28.1302   -1.0974 C   0  0  0  0  0  0  0  0  0  0  0  0
  -88.3784   26.4317    0.6377 C   0  0  0  0  0  0  0  0  0  0  0  0
  -87.2410   25.9479    0.5310 O   0  0  0  0  0  0  0  0  0  0  0  0
  -88.7770   27.5292   -0.1324 N   0  0  0  0  0  0  0  0  0  0  0  0
  -89.7201   27.9454   -0.0619 H   0  0  0  0  0  0  0  0  0  0  0  0
  -89.3354   25.8416    1.5985 C   0  0  0  0  0  0  0  0  0  0  0  0
  -89.4772   24.4113    1.3466 N   0  0  0  0  0  0  0  0  0  0  0  0
  -89.8492   23.9330    2.1778 H   0  0  0  0  0  0  0  0  0  0  0  0
  -90.0492   24.2912    0.4993 H   0  0  0  0  0  0  0  0  0  0  0  0
  -89.0295   26.0748    3.0315 C   0  0  0  0  0  0  0  0  0  0  0  0
  -89.8457   25.1954    3.9656 C   0  0  0  0  0  0  0  0  0  0  0  0
  -90.1881   27.5431    4.5987 C   0  0  0  0  0  0  0  0  0  0  0  0
  -89.1182   27.4902    3.5006 C   0  0  0  0  0  0  0  0  0  0  0  0
  -88.3888   28.1078   -2.4613 C   0  0  0  0  0  0  0  0  0  0  0  0
  -89.8369   27.8806   -2.4994 C   0  0  0  0  0  0  0  0  0  0  0  0
  -90.3214   26.6023   -2.6972 O   0  0  0  0  0  0  0  0  0  0  0  0
  -90.6759   28.8135   -2.3555 O   0  0  0  0  0  0  0  0  0  0  0  0
  -90.6496   26.2437   -3.5929 H   0  0  0  0  0  0  0  0  0  0  0  0
  -86.2018   32.5003   -1.1456 C   0  0  0  0  0  0  0  0  0  0  0  0
  -85.2400   33.2759   -1.2612 O   0  0  0  0  0  0  0  0  0  0  0  0
  -87.2599   32.4531   -2.0916 N   0  0  0  0  0  0  0  0  0  0  0  0
  -88.0578   31.8252   -2.0253 H   0  0  0  0  0  0  0  0  0  0  0  0
  -87.1822   33.3730   -3.2339 C   0  0  0  0  0  0  0  0  0  0  0  0
  -88.0560   34.5186   -3.0017 C   0  0  0  0  0  0  0  0  0  0  0  0
  -87.6619   35.8283   -3.1646 O   0  0  0  0  0  0  0  0  0  0  0  0
  -89.2698   34.3633   -2.6253 O   0  0  0  0  0  0  0  0  0  0  0  0
  -87.7535   36.2546   -4.0891 H   0  0  0  0  0  0  0  0  0  0  0  0
  -87.6048   32.5225   -4.4337 C   0  0  0  0  0  0  0  0  0  0  0  0
  -88.2927   31.3007   -3.9695 C   0  0  0  0  0  0  0  0  0  0  0  0
  -89.4933   31.3559   -3.3255 O   0  0  0  0  0  0  0  0  0  0  0  0
  -87.7270   30.1778   -4.1910 O   0  0  0  0  0  0  0  0  0  0  0  0
  -90.0263   32.1630   -3.1061 H   0  0  0  0  0  0  0  0  0  0  0  0
  -85.1186   31.7584    0.9143 C   0  0  0  0  0  0  0  0  0  0  0  0
  -84.5924   30.5184    1.5184 C   0  0  0  0  0  0  0  0  0  0  0  0
  -85.3807   29.6756    2.2347 C   0  0  0  0  0  0  0  0  0  0  0  0
  -84.8814   28.5151    2.8105 C   0  0  0  0  0  0  0  0  0  0  0  0
  -83.5422   28.1900    2.6603 C   0  0  0  0  0  0  0  0  0  0  0  0
  -83.0301   27.0399    3.2269 O   0  0  0  0  0  0  0  0  0  0  0  0
  -82.7351   29.0450    1.9306 C   0  0  0  0  0  0  0  0  0  0  0  0
  -83.2620   30.1762    1.3804 C   0  0  0  0  0  0  0  0  0  0  0  0
  -82.6612   27.1015    4.1661 H   0  0  0  0  0  0  0  0  0  0  0  0
 17 18  1  0  0  0
 18 15  1  0  0  0
 15 16  1  0  0  0
 15 11  1  0  0  0
 11 12  1  0  0  0
 11  7  1  0  0  0
  7  8  2  0  0  0
  7  9  1  0  0  0
  9  6  1  0  0  0
  6 19  1  0  0  0
 19 20  1  0  0  0
 20 21  1  0  0  0
 20 22  2  0  0  0
  6  2  1  0  0  0
  2  3  2  0  0  0
  2  4  1  0  0  0
  4  1  1  0  0  0
  1 38  1  0  0  0
 38 39  1  0  0  0
 39 40  2  0  0  0
 40 41  1  0  0  0
 41 42  2  0  0  0
 42 43  1  0  0  0
 42 44  1  0  0  0
 44 45  2  0  0  0
  1 24  1  0  0  0
 24 25  2  0  0  0
 24 26  1  0  0  0
 26 28  1  0  0  0
 28 33  1  0  0  0
 33 34  1  0  0  0
 34 35  1  0  0  0
 34 36  2  0  0  0
 28 29  1  0  0  0
 29 30  1  0  0  0
 29 31  2  0  0  0
 45 39  1  0  0  0
 12 13  1  0  0  0
 12 14  1  0  0  0
  9 10  1  0  0  0
 21 23  1  0  0  0
  4  5  1  0  0  0
 43 46  1  0  0  0
 26 27  1  0  0  0
 35 37  1  0  0  0
 30 32  1  0  0  0
M  END
> <minimizedAffinity>
-8.68029

> <CNNscore>
0.3197434545

> <CNNaffinity>
6.4960312843

> <CNN_VS>
2.0770635605

> <CNNaffinity_variance>
0.1788469106

$$$$
[H]OC(=O)C([H])([H])[C@@]([H])(C(=O)O[H])N([H])C(=O)[C@@]([H])(N([H])C(=O)[C@@]([H])(N([H])C(=O)[C@@]([H])(N([H])[H])[C@]([H])(C([H])([H])[H])C([H])([H])C([H])([H])[H])C([H])([H])C(=O)O[H])C([H])([H])c1c([H])c([H])c(O[H])c([H])c1[H]


 46 46  0  0  0  0  0  0  0  0999 V2000
  -88.0423   29.5437    0.0526 C   0  0  0  0  0  0  0  0  0  0  0  0
  -89.2142   31.2220   -1.3488 C   0  0  0  0  0  0  0  0  0  0  0  0
  -89.6437   31.7019   -0.2304 O   0  0  0  0  0  0  0  0  0  0  0  0
  -88.3999   30.1199   -1.2675 N   0  0  0  0  0  0  0  0  0  0  0  0
  -87.9801   29.6377   -2.0666 H   0  0  0  0  0  0  0  0  0  0  0  0
  -89.6867   31.9762   -2.5314 C   0  0  0  0  0  0  0  0  0  0  0  0
  -88.9703   34.2686   -3.2095 C   0  0  0  0  0  0  0  0  0  0  0  0
  -90.1606   34.5933   -3.3405 O   0  0  0  0  0  0  0  0  0  0  0  0
  -88.6084   32.9776   -2.8108 N   0  0  0  0  0  0  0  0  0  0  0  0
  -87.6238   32.6852   -2.6988 H   0  0  0  0  0  0  0  0  0  0  0  0
  -87.9088   35.2629   -3.4769 C   0  0  0  0  0  0  0  0  0  0  0  0
  -86.6525   34.5833   -3.7754 N   0  0  0  0  0  0  0  0  0  0  0  0
  -86.0140   35.2102   -4.2826 H   0  0  0  0  0  0  0  0  0  0  0  0
  -86.2704   34.2158   -2.8930 H   0  0  0  0  0  0  0  0  0  0  0  0
  -88.2125   36.2535   -4.5388 C   0  0  0  0  0  0  0  0  0  0  0  0
  -87.0494   36.4814   -5.4913 C   0  0  0  0  0  0  0  0  0  0  0  0
  -87.8318   38.0321   -2.9121 C   0  0  0  0  0  0  0  0  0  0  0  0
  -88.7235   37.5784   -4.0751 C   0  0  0  0  0  0  0  0  0  0  0  0
  -89.9277   31.1661   -3.7525 C   0  0  0  0  0  0  0  0  0  0  0  0
  -88.7593   31.0139   -4.6252 C   0  0  0  0  0  0  0  0  0  0  0  0
  -88.6976   31.7197   -5.8109 O   0  0  0  0  0  0  0  0  0  0  0  0
  -87.7898   30.2571   -4.3382 O   0  0  0  0  0  0  0  0  0  0  0  0
  -88.9251   31.3302   -6.7247 H   0  0  0  0  0  0  0  0  0  0  0  0
  -86.5704   29.7462    0.1789 C   0  0  0  0  0  0  0  0  0  0  0  0
  -85.7860   29.1916   -0.6066 O   0  0  0  0  0  0  0  0  0  0  0  0
  -86.1257   30.5980    1.2246 N   0  0  0  0  0  0  0  0  0  0  0  0
  -86.7452   31.0693    1.8799 H   0  0  0  0  0  0  0  0  0  0  0  0
  -84.6773   30.8041    1.3539 C   0  0  0  0  0  0  0  0  0  0  0  0
  -84.1966   31.6197    0.2432 C   0  0  0  0  0  0  0  0  0  0  0  0
  -82.9674   31.4515   -0.3550 O   0  0  0  0  0  0  0  0  0  0  0  0
  -84.9121   32.5602   -0.2494 O   0  0  0  0  0  0  0  0  0  0  0  0
  -82.8867   30.7864   -1.1270 H   0  0  0  0  0  0  0  0  0  0  0  0
  -84.0935   29.3897    1.3635 C   0  0  0  0  0  0  0  0  0  0  0  0
  -84.3018   28.7662    2.6860 C   0  0  0  0  0  0  0  0  0  0  0  0
  -83.6760   27.6069    3.0377 O   0  0  0  0  0  0  0  0  0  0  0  0
  -85.0922   29.3494    3.5017 O   0  0  0  0  0  0  0  0  0  0  0  0
  -83.0408   27.0729    2.4947 H   0  0  0  0  0  0  0  0  0  0  0  0
  -88.3707   28.0952    0.1745 C   0  0  0  0  0  0  0  0  0  0  0  0
  -89.1250   27.7353    1.3914 C   0  0  0  0  0  0  0  0  0  0  0  0
  -90.2663   28.3796    1.7480 C   0  0  0  0  0  0  0  0  0  0  0  0
  -90.9686   28.0463    2.8983 C   0  0  0  0  0  0  0  0  0  0  0  0
  -90.5075   27.0286    3.7190 C   0  0  0  0  0  0  0  0  0  0  0  0
  -91.1941   26.6852    4.8665 O   0  0  0  0  0  0  0  0  0  0  0  0
  -89.3456   26.3684    3.3595 C   0  0  0  0  0  0  0  0  0  0  0  0
  -88.6832   26.7248    2.2220 C   0  0  0  0  0  0  0  0  0  0  0  0
  -90.9469   27.1611    5.7234 H   0  0  0  0  0  0  0  0  0  0  0  0
 17 18  1  0  0  0
 18 15  1  0  0  0
 15 16  1  0  0  0
 15 11  1  0  0  0
 11 12  1  0  0  0
 11  7  1  0  0  0
  7  8  2  0  0  0
  7  9  1  0  0  0
  9  6  1  0  0  0
  6 19  1  0  0  0
 19 20  1  0  0  0
 20 21  1  0  0  0
 20 22  2  0  0  0
  6  2  1  0  0  0
  2  3  2  0  0  0
  2  4  1  0  0  0
  4  1  1  0  0  0
  1 38  1  0  0  0
 38 39  1  0  0  0
 39 40  2  0  0  0
 40 41  1  0  0  0
 41 42  2  0  0  0
 42 43  1  0  0  0
 42 44  1  0  0  0
 44 45  2  0  0  0
  1 24  1  0  0  0
 24 25  2  0  0  0
 24 26  1  0  0  0
 26 28  1  0  0  0
 28 33  1  0  0  0
 33 34  1  0  0  0
 34 35  1  0  0  0
 34 36  2  0  0  0
 28 29  1  0  0  0
 29 30  1  0  0  0
 29 31  2  0  0  0
 45 39  1  0  0  0
 12 13  1  0  0  0
 12 14  1  0  0  0
  9 10  1  0  0  0
 21 23  1  0  0  0
  4  5  1  0  0  0
 43 46  1  0  0  0
 26 27  1  0  0  0
 35 37  1  0  0  0
 30 32  1  0  0  0
M  END
> <minimizedAffinity>
-7.73937

> <CNNscore>
0.2402153313

> <CNNaffinity>
6.0840363503

> <CNN_VS>
1.4614788294

> <CNNaffinity_variance>
0.1169812903

$$$$
[H]OC(=O)C([H])([H])[C@@]([H])(C(=O)O[H])N([H])C(=O)[C@@]([H])(N([H])C(=O)[C@@]([H])(N([H])C(=O)[C@@]([H])(N([H])[H])[C@]([H])(C([H])([H])[H])C([H])([H])C([H])([H])[H])C([H])([H])C(=O)O[H])C([H])([H])c1c([H])c([H])c(O[H])c([H])c1[H]


 46 46  0  0  0  0  0  0  0  0999 V2000
  -86.6885   28.3584    0.6609 C   0  0  0  0  0  0  0  0  0  0  0  0
  -88.0016   29.4552   -1.1354 C   0  0  0  0  0  0  0  0  0  0  0  0
  -87.0672   29.0445   -1.9252 O   0  0  0  0  0  0  0  0  0  0  0  0
  -87.8598   29.1407    0.1932 N   0  0  0  0  0  0  0  0  0  0  0  0
  -88.5222   29.3918    0.9318 H   0  0  0  0  0  0  0  0  0  0  0  0
  -89.0765   30.1960   -1.8328 C   0  0  0  0  0  0  0  0  0  0  0  0
  -88.2531   32.5491   -1.9463 C   0  0  0  0  0  0  0  0  0  0  0  0
  -88.7150   32.7572   -0.8138 O   0  0  0  0  0  0  0  0  0  0  0  0
  -88.3769   31.3003   -2.5641 N   0  0  0  0  0  0  0  0  0  0  0  0
  -88.0029   31.1066   -3.5075 H   0  0  0  0  0  0  0  0  0  0  0  0
  -87.5546   33.6391   -2.6612 C   0  0  0  0  0  0  0  0  0  0  0  0
  -86.9604   33.1278   -3.8920 N   0  0  0  0  0  0  0  0  0  0  0  0
  -86.7764   33.8960   -4.5509 H   0  0  0  0  0  0  0  0  0  0  0  0
  -86.1267   32.5790   -3.6405 H   0  0  0  0  0  0  0  0  0  0  0  0
  -88.3749   34.8396   -2.9564 C   0  0  0  0  0  0  0  0  0  0  0  0
  -89.6545   34.5159   -3.7113 C   0  0  0  0  0  0  0  0  0  0  0  0
  -88.4444   37.2485   -3.3391 C   0  0  0  0  0  0  0  0  0  0  0  0
  -87.6738   35.9598   -3.6529 C   0  0  0  0  0  0  0  0  0  0  0  0
  -89.8775   29.4024   -2.7992 C   0  0  0  0  0  0  0  0  0  0  0  0
  -89.9457   27.9679   -2.5036 C   0  0  0  0  0  0  0  0  0  0  0  0
  -89.1668   27.0852   -3.2262 O   0  0  0  0  0  0  0  0  0  0  0  0
  -90.6936   27.4937   -1.6032 O   0  0  0  0  0  0  0  0  0  0  0  0
  -89.5050   26.5279   -4.0095 H   0  0  0  0  0  0  0  0  0  0  0  0
  -87.2572   27.0833    1.1847 C   0  0  0  0  0  0  0  0  0  0  0  0
  -86.6141   26.3852    1.9840 O   0  0  0  0  0  0  0  0  0  0  0  0
  -88.5537   26.7231    0.7307 N   0  0  0  0  0  0  0  0  0  0  0  0
  -89.1057   27.2774    0.0801 H   0  0  0  0  0  0  0  0  0  0  0  0
  -89.1215   25.4695    1.2439 C   0  0  0  0  0  0  0  0  0  0  0  0
  -89.6258   24.6684    0.1331 C   0  0  0  0  0  0  0  0  0  0  0  0
  -89.1721   24.7831   -1.1623 O   0  0  0  0  0  0  0  0  0  0  0  0
  -90.5413   23.7907    0.3082 O   0  0  0  0  0  0  0  0  0  0  0  0
  -88.3629   24.2274   -1.4474 H   0  0  0  0  0  0  0  0  0  0  0  0
  -90.2175   25.9194    2.2124 C   0  0  0  0  0  0  0  0  0  0  0  0
  -90.6667   27.2836    1.8684 C   0  0  0  0  0  0  0  0  0  0  0  0
  -91.6232   27.5052    0.9222 O   0  0  0  0  0  0  0  0  0  0  0  0
  -90.1298   28.2619    2.4889 O   0  0  0  0  0  0  0  0  0  0  0  0
  -92.1117   26.8296    0.3851 H   0  0  0  0  0  0  0  0  0  0  0  0
  -85.9064   29.0448    1.7277 C   0  0  0  0  0  0  0  0  0  0  0  0
  -85.0278   30.1289    1.2459 C   0  0  0  0  0  0  0  0  0  0  0  0
  -85.5235   31.2580    0.6765 C   0  0  0  0  0  0  0  0  0  0  0  0
  -84.6949   32.2719    0.2148 C   0  0  0  0  0  0  0  0  0  0  0  0
  -83.3191   32.1464    0.3302 C   0  0  0  0  0  0  0  0  0  0  0  0
  -82.4814   33.1454   -0.1242 O   0  0  0  0  0  0  0  0  0  0  0  0
  -82.8092   30.9983    0.9105 C   0  0  0  0  0  0  0  0  0  0  0  0
  -83.6552   30.0239    1.3517 C   0  0  0  0  0  0  0  0  0  0  0  0
  -82.1637   33.0939   -1.0825 H   0  0  0  0  0  0  0  0  0  0  0  0
 17 18  1  0  0  0
 18 15  1  0  0  0
 15 16  1  0  0  0
 15 11  1  0  0  0
 11 12  1  0  0  0
 11  7  1  0  0  0
  7  8  2  0  0  0
  7  9  1  0  0  0
  9  6  1  0  0  0
  6 19  1  0  0  0
 19 20  1  0  0  0
 20 21  1  0  0  0
 20 22  2  0  0  0
  6  2  1  0  0  0
  2  3  2  0  0  0
  2  4  1  0  0  0
  4  1  1  0  0  0
  1 38  1  0  0  0
 38 39  1  0  0  0
 39 40  2  0  0  0
 40 41  1  0  0  0
 41 42  2  0  0  0
 42 43  1  0  0  0
 42 44  1  0  0  0
 44 45  2  0  0  0
  1 24  1  0  0  0
 24 25  2  0  0  0
 24 26  1  0  0  0
 26 28  1  0  0  0
 28 33  1  0  0  0
 33 34  1  0  0  0
 34 35  1  0  0  0
 34 36  2  0  0  0
 28 29  1  0  0  0
 29 30  1  0  0  0
 29 31  2  0  0  0
 45 39  1  0  0  0
 12 13  1  0  0  0
 12 14  1  0  0  0
  9 10  1  0  0  0
 21 23  1  0  0  0
  4  5  1  0  0  0
 43 46  1  0  0  0
 26 27  1  0  0  0
 35 37  1  0  0  0
 30 32  1  0  0  0
M  END
> <minimizedAffinity>
-8.08901

> <CNNscore>
0.2055427879

> <CNNaffinity>
6.0574021339

> <CNN_VS>
1.2450553179

> <CNNaffinity_variance>
0.5324441791

$$$$
[H]OC(=O)C([H])([H])[C@@]([H])(C(=O)O[H])N([H])C(=O)[C@@]([H])(N([H])C(=O)[C@@]([H])(N([H])C(=O)[C@@]([H])(N([H])[H])[C@]([H])(C([H])([H])[H])C([H])([H])C([H])([H])[H])C([H])([H])C(=O)O[H])C([H])([H])c1c([H])c([H])c(O[H])c([H])c1[H]


 46 46  0  0  0  0  0  0  0  0999 V2000
  -86.7787   28.5870    0.3476 C   0  0  0  0  0  0  0  0  0  0  0  0
  -87.9798   29.7918   -1.4580 C   0  0  0  0  0  0  0  0  0  0  0  0
  -87.2958   29.0512   -2.2638 O   0  0  0  0  0  0  0  0  0  0  0  0
  -87.7546   29.6042   -0.1169 N   0  0  0  0  0  0  0  0  0  0  0  0
  -88.2268   30.1114    0.6361 H   0  0  0  0  0  0  0  0  0  0  0  0
  -88.9039   30.7164   -2.1518 C   0  0  0  0  0  0  0  0  0  0  0  0
  -88.2949   33.1363   -2.1161 C   0  0  0  0  0  0  0  0  0  0  0  0
  -89.2146   33.3479   -1.3107 O   0  0  0  0  0  0  0  0  0  0  0  0
  -88.0441   31.8530   -2.6128 N   0  0  0  0  0  0  0  0  0  0  0  0
  -87.2860   31.6553   -3.2864 H   0  0  0  0  0  0  0  0  0  0  0  0
  -87.4420   34.2594   -2.5615 C   0  0  0  0  0  0  0  0  0  0  0  0
  -86.1916   33.7478   -3.1132 N   0  0  0  0  0  0  0  0  0  0  0  0
  -85.7499   34.4509   -3.7202 H   0  0  0  0  0  0  0  0  0  0  0  0
  -85.6009   33.4354   -2.3302 H   0  0  0  0  0  0  0  0  0  0  0  0
  -88.0712   35.1992   -3.5217 C   0  0  0  0  0  0  0  0  0  0  0  0
  -87.8663   34.7944   -4.9729 C   0  0  0  0  0  0  0  0  0  0  0  0
  -86.9886   37.0720   -4.6509 C   0  0  0  0  0  0  0  0  0  0  0  0
  -87.7068   36.6396   -3.3662 C   0  0  0  0  0  0  0  0  0  0  0  0
  -89.6240   30.1456   -3.3185 C   0  0  0  0  0  0  0  0  0  0  0  0
  -89.7303   31.0458   -4.4710 C   0  0  0  0  0  0  0  0  0  0  0  0
  -88.8025   30.9601   -5.4907 O   0  0  0  0  0  0  0  0  0  0  0  0
  -90.6463   31.9086   -4.5780 O   0  0  0  0  0  0  0  0  0  0  0  0
  -88.0007   31.5808   -5.5925 H   0  0  0  0  0  0  0  0  0  0  0  0
  -87.6079   27.4713    0.8871 C   0  0  0  0  0  0  0  0  0  0  0  0
  -87.2857   26.8944    1.9374 O   0  0  0  0  0  0  0  0  0  0  0  0
  -88.7680   27.1170    0.1487 N   0  0  0  0  0  0  0  0  0  0  0  0
  -89.0592   27.5747   -0.7122 H   0  0  0  0  0  0  0  0  0  0  0  0
  -89.5911   26.0203    0.6750 C   0  0  0  0  0  0  0  0  0  0  0  0
  -89.5316   24.8814   -0.2358 C   0  0  0  0  0  0  0  0  0  0  0  0
  -88.9998   23.6568    0.1027 O   0  0  0  0  0  0  0  0  0  0  0  0
  -89.9842   24.9613   -1.4307 O   0  0  0  0  0  0  0  0  0  0  0  0
  -89.6100   22.9636    0.5410 H   0  0  0  0  0  0  0  0  0  0  0  0
  -90.9917   26.6242    0.7983 C   0  0  0  0  0  0  0  0  0  0  0  0
  -91.0270   27.9532    0.1550 C   0  0  0  0  0  0  0  0  0  0  0  0
  -90.7475   29.0927    0.8499 O   0  0  0  0  0  0  0  0  0  0  0  0
  -91.3287   28.0074   -1.0844 O   0  0  0  0  0  0  0  0  0  0  0  0
  -90.4960   29.1727    1.8059 H   0  0  0  0  0  0  0  0  0  0  0  0
  -85.8543   29.0921    1.4017 C   0  0  0  0  0  0  0  0  0  0  0  0
  -84.9848   30.2064    0.9756 C   0  0  0  0  0  0  0  0  0  0  0  0
  -83.6301   30.1208    1.0214 C   0  0  0  0  0  0  0  0  0  0  0  0
  -82.8144   31.1737    0.6296 C   0  0  0  0  0  0  0  0  0  0  0  0
  -83.3808   32.3546    0.1750 C   0  0  0  0  0  0  0  0  0  0  0  0
  -82.5836   33.4111   -0.2179 O   0  0  0  0  0  0  0  0  0  0  0  0
  -84.7607   32.4464    0.1255 C   0  0  0  0  0  0  0  0  0  0  0  0
  -85.5287   31.3906    0.5194 C   0  0  0  0  0  0  0  0  0  0  0  0
  -82.3208   34.0893    0.4841 H   0  0  0  0  0  0  0  0  0  0  0  0
 17 18  1  0  0  0
 18 15  1  0  0  0
 15 16  1  0  0  0
 15 11  1  0  0  0
 11 12  1  0  0  0
 11  7  1  0  0  0
  7  8  2  0  0  0
  7  9  1  0  0  0
  9  6  1  0  0  0
  6 19  1  0  0  0
 19 20  1  0  0  0
 20 21  1  0  0  0
 20 22  2  0  0  0
  6  2  1  0  0  0
  2  3  2  0  0  0
  2  4  1  0  0  0
  4  1  1  0  0  0
  1 38  1  0  0  0
 38 39  1  0  0  0
 39 40  2  0  0  0
 40 41  1  0  0  0
 41 42  2  0  0  0
 42 43  1  0  0  0
 42 44  1  0  0  0
 44 45  2  0  0  0
  1 24  1  0  0  0
 24 25  2  0  0  0
 24 26  1  0  0  0
 26 28  1  0  0  0
 28 33  1  0  0  0
 33 34  1  0  0  0
 34 35  1  0  0  0
 34 36  2  0  0  0
 28 29  1  0  0  0
 29 30  1  0  0  0
 29 31  2  0  0  0
 45 39  1  0  0  0
 12 13  1  0  0  0
 12 14  1  0  0  0
  9 10  1  0  0  0
 21 23  1  0  0  0
  4  5  1  0  0  0
 43 46  1  0  0  0
 26 27  1  0  0  0
 35 37  1  0  0  0
 30 32  1  0  0  0
M  END
> <minimizedAffinity>
-8.19456

> <CNNscore>
0.1956526935

> <CNNaffinity>
6.1202058792

> <CNN_VS>
1.1974347830

> <CNNaffinity_variance>
0.2351506054

$$$$
[H]OC(=O)C([H])([H])[C@@]([H])(C(=O)O[H])N([H])C(=O)[C@@]([H])(N([H])C(=O)[C@@]([H])(N([H])C(=O)[C@@]([H])(N([H])[H])[C@]([H])(C([H])([H])[H])C([H])([H])C([H])([H])[H])C([H])([H])C(=O)O[H])C([H])([H])c1c([H])c([H])c(O[H])c([H])c1[H]


 46 46  0  0  0  0  0  0  0  0999 V2000
  -87.0768   28.2895    1.5951 C   0  0  0  0  0  0  0  0  0  0  0  0
  -88.6836   28.9998   -0.1564 C   0  0  0  0  0  0  0  0  0  0  0  0
  -87.8312   28.5067   -0.9906 O   0  0  0  0  0  0  0  0  0  0  0  0
  -88.3509   28.9231    1.1732 N   0  0  0  0  0  0  0  0  0  0  0  0
  -88.9294   29.2637    1.9456 H   0  0  0  0  0  0  0  0  0  0  0  0
  -89.8887   29.5582   -0.8094 C   0  0  0  0  0  0  0  0  0  0  0  0
  -89.3037   31.8553   -1.5900 C   0  0  0  0  0  0  0  0  0  0  0  0
  -89.6770   32.3127   -0.4988 O   0  0  0  0  0  0  0  0  0  0  0  0
  -89.3661   30.4850   -1.8637 N   0  0  0  0  0  0  0  0  0  0  0  0
  -89.0639   30.0835   -2.7665 H   0  0  0  0  0  0  0  0  0  0  0  0
  -88.7793   32.7723   -2.6249 C   0  0  0  0  0  0  0  0  0  0  0  0
  -89.8452   33.6471   -3.1026 N   0  0  0  0  0  0  0  0  0  0  0  0
  -89.4515   34.4869   -3.5472 H   0  0  0  0  0  0  0  0  0  0  0  0
  -90.4614   33.0949   -3.7150 H   0  0  0  0  0  0  0  0  0  0  0  0
  -87.6018   33.5817   -2.2255 C   0  0  0  0  0  0  0  0  0  0  0  0
  -87.0772   34.4641   -3.3473 C   0  0  0  0  0  0  0  0  0  0  0  0
  -85.9510   33.6390   -0.4295 C   0  0  0  0  0  0  0  0  0  0  0  0
  -86.4581   32.8283   -1.6290 C   0  0  0  0  0  0  0  0  0  0  0  0
  -90.7938   28.5637   -1.4398 C   0  0  0  0  0  0  0  0  0  0  0  0
  -90.5374   28.3201   -2.8627 C   0  0  0  0  0  0  0  0  0  0  0  0
  -89.4912   27.4992   -3.2361 O   0  0  0  0  0  0  0  0  0  0  0  0
  -91.2409   28.8321   -3.7781 O   0  0  0  0  0  0  0  0  0  0  0  0
  -88.5793   27.8338   -3.5444 H   0  0  0  0  0  0  0  0  0  0  0  0
  -87.4779   27.0177    2.2623 C   0  0  0  0  0  0  0  0  0  0  0  0
  -86.6654   26.0891    2.3941 O   0  0  0  0  0  0  0  0  0  0  0  0
  -88.8144   26.9331    2.7349 N   0  0  0  0  0  0  0  0  0  0  0  0
  -89.5004   27.6792    2.6451 H   0  0  0  0  0  0  0  0  0  0  0  0
  -89.2163   25.6843    3.3952 C   0  0  0  0  0  0  0  0  0  0  0  0
  -90.0584   24.9025    2.4954 C   0  0  0  0  0  0  0  0  0  0  0  0
  -90.0876   23.5256    2.4764 O   0  0  0  0  0  0  0  0  0  0  0  0
  -90.8378   25.4702    1.6532 O   0  0  0  0  0  0  0  0  0  0  0  0
  -90.7316   23.0419    3.1060 H   0  0  0  0  0  0  0  0  0  0  0  0
  -89.9447   26.1429    4.6604 C   0  0  0  0  0  0  0  0  0  0  0  0
  -90.4329   27.5262    4.4886 C   0  0  0  0  0  0  0  0  0  0  0  0
  -91.4016   27.8360    3.5804 O   0  0  0  0  0  0  0  0  0  0  0  0
  -89.9184   28.4351    5.2231 O   0  0  0  0  0  0  0  0  0  0  0  0
  -91.8754   27.2184    2.9659 H   0  0  0  0  0  0  0  0  0  0  0  0
  -86.2808   29.1297    2.5340 C   0  0  0  0  0  0  0  0  0  0  0  0
  -85.2514   29.9679    1.8882 C   0  0  0  0  0  0  0  0  0  0  0  0
  -84.7539   29.6774    0.6581 C   0  0  0  0  0  0  0  0  0  0  0  0
  -83.7785   30.4614    0.0569 C   0  0  0  0  0  0  0  0  0  0  0  0
  -83.2861   31.5775    0.7155 C   0  0  0  0  0  0  0  0  0  0  0  0
  -82.3159   32.3673    0.1315 O   0  0  0  0  0  0  0  0  0  0  0  0
  -83.7905   31.8783    1.9685 C   0  0  0  0  0  0  0  0  0  0  0  0
  -84.7480   31.0837    2.5267 C   0  0  0  0  0  0  0  0  0  0  0  0
  -81.3486   32.1338    0.3095 H   0  0  0  0  0  0  0  0  0  0  0  0
 17 18  1  0  0  0
 18 15  1  0  0  0
 15 16  1  0  0  0
 15 11  1  0  0  0
 11 12  1  0  0  0
 11  7  1  0  0  0
  7  8  2  0  0  0
  7  9  1  0  0  0
  9  6  1  0  0  0
  6 19  1  0  0  0
 19 20  1  0  0  0
 20 21  1  0  0  0
 20 22  2  0  0  0
  6  2  1  0  0  0
  2  3  2  0  0  0
  2  4  1  0  0  0
  4  1  1  0  0  0
  1 38  1  0  0  0
 38 39  1  0  0  0
 39 40  2  0  0  0
 40 41  1  0  0  0
 41 42  2  0  0  0
 42 43  1  0  0  0
 42 44  1  0  0  0
 44 45  2  0  0  0
  1 24  1  0  0  0
 24 25  2  0  0  0
 24 26  1  0  0  0
 26 28  1  0  0  0
 28 33  1  0  0  0
 33 34  1  0  0  0
 34 35  1  0  0  0
 34 36  2  0  0  0
 28 29  1  0  0  0
 29 30  1  0  0  0
 29 31  2  0  0  0
 45 39  1  0  0  0
 12 13  1  0  0  0
 12 14  1  0  0  0
  9 10  1  0  0  0
 21 23  1  0  0  0
  4  5  1  0  0  0
 43 46  1  0  0  0
 26 27  1  0  0  0
 35 37  1  0  0  0
 30 32  1  0  0  0
M  END
> <minimizedAffinity>
-7.85059

> <CNNscore>
0.1434554160

> <CNNaffinity>
6.0699677467

> <CNN_VS>
0.8707697392

> <CNNaffinity_variance>
0.2091989964

$$$$
[H]OC(=O)C([H])([H])[C@@]([H])(C(=O)O[H])N([H])C(=O)[C@@]([H])(N([H])C(=O)[C@@]([H])(N([H])C(=O)[C@@]([H])(N([H])[H])[C@]([H])(C([H])([H])[H])C([H])([H])C([H])([H])[H])C([H])([H])C(=O)O[H])C([H])([H])c1c([H])c([H])c(O[H])c([H])c1[H]


 46 46  0  0  0  0  0  0  0  0999 V2000
  -87.9249   29.9090   -0.5426 C   0  0  0  0  0  0  0  0  0  0  0  0
  -87.7148   31.8743   -2.0418 C   0  0  0  0  0  0  0  0  0  0  0  0
  -87.6780   32.5683   -0.9543 O   0  0  0  0  0  0  0  0  0  0  0  0
  -87.8453   30.5157   -1.8947 N   0  0  0  0  0  0  0  0  0  0  0  0
  -87.8809   29.8409   -2.6633 H   0  0  0  0  0  0  0  0  0  0  0  0
  -87.5971   32.6960   -3.2671 C   0  0  0  0  0  0  0  0  0  0  0  0
  -89.7068   32.1982   -4.5037 C   0  0  0  0  0  0  0  0  0  0  0  0
  -89.1832   31.1744   -4.9694 O   0  0  0  0  0  0  0  0  0  0  0  0
  -89.0056   33.0447   -3.6388 N   0  0  0  0  0  0  0  0  0  0  0  0
  -89.4213   33.9037   -3.2425 H   0  0  0  0  0  0  0  0  0  0  0  0
  -91.1010   32.5340   -4.8653 C   0  0  0  0  0  0  0  0  0  0  0  0
  -91.9652   32.4009   -3.6971 N   0  0  0  0  0  0  0  0  0  0  0  0
  -92.8329   32.9378   -3.8263 H   0  0  0  0  0  0  0  0  0  0  0  0
  -92.1122   31.3974   -3.5209 H   0  0  0  0  0  0  0  0  0  0  0  0
  -91.2971   33.8652   -5.4903 C   0  0  0  0  0  0  0  0  0  0  0  0
  -90.4521   34.0680   -6.7381 C   0  0  0  0  0  0  0  0  0  0  0  0
  -90.8277   36.2598   -5.4817 C   0  0  0  0  0  0  0  0  0  0  0  0
  -91.1220   35.0455   -4.5916 C   0  0  0  0  0  0  0  0  0  0  0  0
  -86.8067   33.9454   -3.1262 C   0  0  0  0  0  0  0  0  0  0  0  0
  -87.3215   35.0838   -3.8935 C   0  0  0  0  0  0  0  0  0  0  0  0
  -87.2350   35.0718   -5.2721 O   0  0  0  0  0  0  0  0  0  0  0  0
  -87.8510   36.0905   -3.3446 O   0  0  0  0  0  0  0  0  0  0  0  0
  -86.5152   35.5554   -5.8075 H   0  0  0  0  0  0  0  0  0  0  0  0
  -86.5101   29.6477   -0.1503 C   0  0  0  0  0  0  0  0  0  0  0  0
  -85.8516   28.7591   -0.7130 O   0  0  0  0  0  0  0  0  0  0  0  0
  -85.9675   30.4615    0.8792 N   0  0  0  0  0  0  0  0  0  0  0  0
  -86.4815   31.1998    1.3546 H   0  0  0  0  0  0  0  0  0  0  0  0
  -84.5738   30.2116    1.2696 C   0  0  0  0  0  0  0  0  0  0  0  0
  -84.5414   29.3651    2.4580 C   0  0  0  0  0  0  0  0  0  0  0  0
  -85.3672   29.5405    3.5463 O   0  0  0  0  0  0  0  0  0  0  0  0
  -83.7221   28.3861    2.5548 O   0  0  0  0  0  0  0  0  0  0  0  0
  -86.2819   29.0842    3.5440 H   0  0  0  0  0  0  0  0  0  0  0  0
  -83.9908   31.6068    1.5041 C   0  0  0  0  0  0  0  0  0  0  0  0
  -83.8576   32.3212    0.2182 C   0  0  0  0  0  0  0  0  0  0  0  0
  -84.9049   32.9930   -0.3395 O   0  0  0  0  0  0  0  0  0  0  0  0
  -82.7214   32.2937   -0.3636 O   0  0  0  0  0  0  0  0  0  0  0  0
  -85.8238   33.0888    0.0211 H   0  0  0  0  0  0  0  0  0  0  0  0
  -88.7067   28.6408   -0.5083 C   0  0  0  0  0  0  0  0  0  0  0  0
  -89.3427   28.3448    0.7907 C   0  0  0  0  0  0  0  0  0  0  0  0
  -90.5637   28.8381    1.1236 C   0  0  0  0  0  0  0  0  0  0  0  0
  -91.1555   28.5667    2.3499 C   0  0  0  0  0  0  0  0  0  0  0  0
  -90.4967   27.7705    3.2740 C   0  0  0  0  0  0  0  0  0  0  0  0
  -91.0714   27.4915    4.4979 O   0  0  0  0  0  0  0  0  0  0  0  0
  -89.2529   27.2647    2.9391 C   0  0  0  0  0  0  0  0  0  0  0  0
  -88.7038   27.5539    1.7248 C   0  0  0  0  0  0  0  0  0  0  0  0
  -90.8781   28.1224    5.2638 H   0  0  0  0  0  0  0  0  0  0  0  0
 17 18  1  0  0  0
 18 15  1  0  0  0
 15 16  1  0  0  0
 15 11  1  0  0  0
 11 12  1  0  0  0
 11  7  1  0  0  0
  7  8  2  0  0  0
  7  9  1  0  0  0
  9  6  1  0  0  0
  6 19  1  0  0  0
 19 20  1  0  0  0
 20 21  1  0  0  0
 20 22  2  0  0  0
  6  2  1  0  0  0
  2  3  2  0  0  0
  2  4  1  0  0  0
  4  1  1  0  0  0
  1 38  1  0  0  0
 38 39  1  0  0  0
 39 40  2  0  0  0
 40 41  1  0  0  0
 41 42  2  0  0  0
 42 43  1  0  0  0
 42 44  1  0  0  0
 44 45  2  0  0  0
  1 24  1  0  0  0
 24 25  2  0  0  0
 24 26  1  0  0  0
 26 28  1  0  0  0
 28 33  1  0  0  0
 33 34  1  0  0  0
 34 35  1  0  0  0
 34 36  2  0  0  0
 28 29  1  0  0  0
 29 30  1  0  0  0
 29 31  2  0  0  0
 45 39  1  0  0  0
 12 13  1  0  0  0
 12 14  1  0  0  0
  9 10  1  0  0  0
 21 23  1  0  0  0
  4  5  1  0  0  0
 43 46  1  0  0  0
 26 27  1  0  0  0
 35 37  1  0  0  0
 30 32  1  0  0  0
M  END
> <minimizedAffinity>
-7.21753

> <CNNscore>
0.1157439798

> <CNNaffinity>
5.6707625389

> <CNN_VS>
0.6563566327

> <CNNaffinity_variance>
0.2353053540

$$$$
[H]OC(=O)C([H])([H])[C@@]([H])(C(=O)O[H])N([H])C(=O)[C@@]([H])(N([H])C(=O)[C@@]([H])(N([H])C(=O)[C@@]([H])(N([H])[H])[C@]([H])(C([H])([H])[H])C([H])([H])C([H])([H])[H])C([H])([H])C(=O)O[H])C([H])([H])c1c([H])c([H])c(O[H])c([H])c1[H]


 46 46  0  0  0  0  0  0  0  0999 V2000
  -88.1566   29.3527   -0.0162 C   0  0  0  0  0  0  0  0  0  0  0  0
  -89.1607   31.2306   -1.2888 C   0  0  0  0  0  0  0  0  0  0  0  0
  -89.4034   31.7474   -0.1313 O   0  0  0  0  0  0  0  0  0  0  0  0
  -88.5330   30.0098   -1.2926 N   0  0  0  0  0  0  0  0  0  0  0  0
  -88.2712   29.4849   -2.1312 H   0  0  0  0  0  0  0  0  0  0  0  0
  -89.6085   32.0786   -2.4161 C   0  0  0  0  0  0  0  0  0  0  0  0
  -88.7066   34.3284   -3.0104 C   0  0  0  0  0  0  0  0  0  0  0  0
  -89.8644   34.7719   -3.0561 O   0  0  0  0  0  0  0  0  0  0  0  0
  -88.4530   32.9878   -2.7023 N   0  0  0  0  0  0  0  0  0  0  0  0
  -87.4973   32.5971   -2.6622 H   0  0  0  0  0  0  0  0  0  0  0  0
  -87.5678   35.2314   -3.2841 C   0  0  0  0  0  0  0  0  0  0  0  0
  -86.4940   34.4945   -3.9424 N   0  0  0  0  0  0  0  0  0  0  0  0
  -85.8622   35.1395   -4.4351 H   0  0  0  0  0  0  0  0  0  0  0  0
  -86.0301   33.9067   -3.2360 H   0  0  0  0  0  0  0  0  0  0  0  0
  -87.8922   36.4534   -4.0604 C   0  0  0  0  0  0  0  0  0  0  0  0
  -86.9653   36.6695   -5.2463 C   0  0  0  0  0  0  0  0  0  0  0  0
  -89.1360   38.5440   -3.8689 C   0  0  0  0  0  0  0  0  0  0  0  0
  -87.9814   37.7238   -3.2796 C   0  0  0  0  0  0  0  0  0  0  0  0
  -89.9754   31.3512   -3.6576 C   0  0  0  0  0  0  0  0  0  0  0  0
  -88.8656   31.1388   -4.5920 C   0  0  0  0  0  0  0  0  0  0  0  0
  -88.8272   31.8471   -5.7772 O   0  0  0  0  0  0  0  0  0  0  0  0
  -87.9265   30.3270   -4.3595 O   0  0  0  0  0  0  0  0  0  0  0  0
  -89.1247   31.4766   -6.6787 H   0  0  0  0  0  0  0  0  0  0  0  0
  -86.6678   29.4223    0.0321 C   0  0  0  0  0  0  0  0  0  0  0  0
  -85.9758   28.6129   -0.6050 O   0  0  0  0  0  0  0  0  0  0  0  0
  -86.0976   30.4509    0.8280 N   0  0  0  0  0  0  0  0  0  0  0  0
  -86.6393   31.1308    1.3569 H   0  0  0  0  0  0  0  0  0  0  0  0
  -84.6317   30.5273    0.8788 C   0  0  0  0  0  0  0  0  0  0  0  0
  -84.1406   29.7717    2.0268 C   0  0  0  0  0  0  0  0  0  0  0  0
  -82.8812   29.2186    2.0980 O   0  0  0  0  0  0  0  0  0  0  0  0
  -84.8737   29.5784    3.0584 O   0  0  0  0  0  0  0  0  0  0  0  0
  -82.1151   29.7927    2.4563 H   0  0  0  0  0  0  0  0  0  0  0  0
  -84.3340   32.0256    0.9679 C   0  0  0  0  0  0  0  0  0  0  0  0
  -84.6903   32.6877   -0.3033 C   0  0  0  0  0  0  0  0  0  0  0  0
  -85.9866   32.8085   -0.7089 O   0  0  0  0  0  0  0  0  0  0  0  0
  -83.7409   33.1508   -1.0205 O   0  0  0  0  0  0  0  0  0  0  0  0
  -86.8006   32.4968   -0.2359 H   0  0  0  0  0  0  0  0  0  0  0  0
  -88.6046   27.9342    0.0736 C   0  0  0  0  0  0  0  0  0  0  0  0
  -89.2617   27.5757    1.3460 C   0  0  0  0  0  0  0  0  0  0  0  0
  -88.8608   26.5114    2.0885 C   0  0  0  0  0  0  0  0  0  0  0  0
  -89.4868   26.1700    3.2798 C   0  0  0  0  0  0  0  0  0  0  0  0
  -90.5534   26.9258    3.7413 C   0  0  0  0  0  0  0  0  0  0  0  0
  -91.1869   26.5993    4.9238 O   0  0  0  0  0  0  0  0  0  0  0  0
  -90.9650   28.0118    2.9889 C   0  0  0  0  0  0  0  0  0  0  0  0
  -90.3252   28.3154    1.8234 C   0  0  0  0  0  0  0  0  0  0  0  0
  -91.9704   25.9622    4.8780 H   0  0  0  0  0  0  0  0  0  0  0  0
 17 18  1  0  0  0
 18 15  1  0  0  0
 15 16  1  0  0  0
 15 11  1  0  0  0
 11 12  1  0  0  0
 11  7  1  0  0  0
  7  8  2  0  0  0
  7  9  1  0  0  0
  9  6  1  0  0  0
  6 19  1  0  0  0
 19 20  1  0  0  0
 20 21  1  0  0  0
 20 22  2  0  0  0
  6  2  1  0  0  0
  2  3  2  0  0  0
  2  4  1  0  0  0
  4  1  1  0  0  0
  1 38  1  0  0  0
 38 39  1  0  0  0
 39 40  2  0  0  0
 40 41  1  0  0  0
 41 42  2  0  0  0
 42 43  1  0  0  0
 42 44  1  0  0  0
 44 45  2  0  0  0
  1 24  1  0  0  0
 24 25  2  0  0  0
 24 26  1  0  0  0
 26 28  1  0  0  0
 28 33  1  0  0  0
 33 34  1  0  0  0
 34 35  1  0  0  0
 34 36  2  0  0  0
 28 29  1  0  0  0
 29 30  1  0  0  0
 29 31  2  0  0  0
 45 39  1  0  0  0
 12 13  1  0  0  0
 12 14  1  0  0  0
  9 10  1  0  0  0
 21 23  1  0  0  0
  4  5  1  0  0  0
 43 46  1  0  0  0
 26 27  1  0  0  0
 35 37  1  0  0  0
 30 32  1  0  0  0
M  END
> <minimizedAffinity>
-7.74559

> <CNNscore>
0.1123920679

> <CNNaffinity>
5.8436350822

> <CNN_VS>
0.6567782164

> <CNNaffinity_variance>
0.1307173669

$$$$
[H]OC(=O)C([H])([H])[C@@]([H])(C(=O)O[H])N([H])C(=O)[C@@]([H])(N([H])C(=O)[C@@]([H])(N([H])C(=O)[C@@]([H])(N([H])[H])[C@]([H])(C([H])([H])[H])C([H])([H])C([H])([H])[H])C([H])([H])C(=O)O[H])C([H])([H])c1c([H])c([H])c(O[H])c([H])c1[H]


 46 46  0  0  0  0  0  0  0  0999 V2000
  -86.8518   31.0236   -0.6816 C   0  0  0  0  0  0  0  0  0  0  0  0
  -87.8637   28.8738   -1.3947 C   0  0  0  0  0  0  0  0  0  0  0  0
  -87.9730   29.4301   -2.5541 O   0  0  0  0  0  0  0  0  0  0  0  0
  -87.3057   29.6387   -0.4008 N   0  0  0  0  0  0  0  0  0  0  0  0
  -87.1492   29.3300    0.5622 H   0  0  0  0  0  0  0  0  0  0  0  0
  -88.3649   27.4816   -1.3619 C   0  0  0  0  0  0  0  0  0  0  0  0
  -89.0630   26.4194    0.7857 C   0  0  0  0  0  0  0  0  0  0  0  0
  -88.1556   25.5830    0.6581 O   0  0  0  0  0  0  0  0  0  0  0  0
  -89.2683   27.4210   -0.1687 N   0  0  0  0  0  0  0  0  0  0  0  0
  -90.0197   28.1251   -0.0838 H   0  0  0  0  0  0  0  0  0  0  0  0
  -89.9469   26.3623    1.9700 C   0  0  0  0  0  0  0  0  0  0  0  0
  -90.6972   25.1107    1.9726 N   0  0  0  0  0  0  0  0  0  0  0  0
  -91.0424   24.8981    2.9179 H   0  0  0  0  0  0  0  0  0  0  0  0
  -91.4360   25.1795    1.2592 H   0  0  0  0  0  0  0  0  0  0  0  0
  -89.2757   26.5521    3.2794 C   0  0  0  0  0  0  0  0  0  0  0  0
  -89.4403   25.3621    4.2115 C   0  0  0  0  0  0  0  0  0  0  0  0
  -90.9631   28.3048    3.4664 C   0  0  0  0  0  0  0  0  0  0  0  0
  -89.6258   27.7996    4.0228 C   0  0  0  0  0  0  0  0  0  0  0  0
  -89.1168   27.0436   -2.5653 C   0  0  0  0  0  0  0  0  0  0  0  0
  -90.4581   26.5191   -2.2903 C   0  0  0  0  0  0  0  0  0  0  0  0
  -91.5295   27.3883   -2.2236 O   0  0  0  0  0  0  0  0  0  0  0  0
  -90.6840   25.2896   -2.1105 O   0  0  0  0  0  0  0  0  0  0  0  0
  -91.9303   27.7418   -1.3559 H   0  0  0  0  0  0  0  0  0  0  0  0
  -85.7275   31.2638    0.2680 C   0  0  0  0  0  0  0  0  0  0  0  0
  -85.5389   32.3904    0.7529 O   0  0  0  0  0  0  0  0  0  0  0  0
  -84.9044   30.1507    0.5848 N   0  0  0  0  0  0  0  0  0  0  0  0
  -85.0377   29.2156    0.2067 H   0  0  0  0  0  0  0  0  0  0  0  0
  -83.7961   30.3790    1.5213 C   0  0  0  0  0  0  0  0  0  0  0  0
  -82.8823   31.3729    0.9671 C   0  0  0  0  0  0  0  0  0  0  0  0
  -82.6456   32.6014    1.5431 O   0  0  0  0  0  0  0  0  0  0  0  0
  -82.2327   31.1494   -0.1132 O   0  0  0  0  0  0  0  0  0  0  0  0
  -81.9109   32.6761    2.2499 H   0  0  0  0  0  0  0  0  0  0  0  0
  -83.1574   28.9993    1.6946 C   0  0  0  0  0  0  0  0  0  0  0  0
  -83.8760   28.2373    2.7359 C   0  0  0  0  0  0  0  0  0  0  0  0
  -83.4212   27.0322    3.1834 O   0  0  0  0  0  0  0  0  0  0  0  0
  -84.9467   28.7437    3.2126 O   0  0  0  0  0  0  0  0  0  0  0  0
  -82.6053   26.5478    2.8949 H   0  0  0  0  0  0  0  0  0  0  0  0
  -87.9164   32.0471   -0.4818 C   0  0  0  0  0  0  0  0  0  0  0  0
  -88.0874   32.9854   -1.6085 C   0  0  0  0  0  0  0  0  0  0  0  0
  -89.2693   33.1139   -2.2655 C   0  0  0  0  0  0  0  0  0  0  0  0
  -89.4251   33.9897   -3.3315 C   0  0  0  0  0  0  0  0  0  0  0  0
  -88.3549   34.7642   -3.7516 C   0  0  0  0  0  0  0  0  0  0  0  0
  -88.4933   35.6396   -4.8102 O   0  0  0  0  0  0  0  0  0  0  0  0
  -87.1489   34.6377   -3.0849 C   0  0  0  0  0  0  0  0  0  0  0  0
  -87.0345   33.7660   -2.0423 C   0  0  0  0  0  0  0  0  0  0  0  0
  -88.2946   35.2915   -5.7382 H   0  0  0  0  0  0  0  0  0  0  0  0
 17 18  1  0  0  0
 18 15  1  0  0  0
 15 16  1  0  0  0
 15 11  1  0  0  0
 11 12  1  0  0  0
 11  7  1  0  0  0
  7  8  2  0  0  0
  7  9  1  0  0  0
  9  6  1  0  0  0
  6 19  1  0  0  0
 19 20  1  0  0  0
 20 21  1  0  0  0
 20 22  2  0  0  0
  6  2  1  0  0  0
  2  3  2  0  0  0
  2  4  1  0  0  0
  4  1  1  0  0  0
  1 38  1  0  0  0
 38 39  1  0  0  0
 39 40  2  0  0  0
 40 41  1  0  0  0
 41 42  2  0  0  0
 42 43  1  0  0  0
 42 44  1  0  0  0
 44 45  2  0  0  0
  1 24  1  0  0  0
 24 25  2  0  0  0
 24 26  1  0  0  0
 26 28  1  0  0  0
 28 33  1  0  0  0
 33 34  1  0  0  0
 34 35  1  0  0  0
 34 36  2  0  0  0
 28 29  1  0  0  0
 29 30  1  0  0  0
 29 31  2  0  0  0
 45 39  1  0  0  0
 12 13  1  0  0  0
 12 14  1  0  0  0
  9 10  1  0  0  0
 21 23  1  0  0  0
  4  5  1  0  0  0
 43 46  1  0  0  0
 26 27  1  0  0  0
 35 37  1  0  0  0
 30 32  1  0  0  0
M  END
> <minimizedAffinity>
-7.42916

> <CNNscore>
0.1122278050

> <CNNaffinity>
6.0388970375

> <CNN_VS>
0.6777321696

> <CNNaffinity_variance>
0.1132719144

$$$$
[H]OC(=O)C([H])([H])[C@@]([H])(C(=O)O[H])N([H])C(=O)[C@@]([H])(N([H])C(=O)[C@@]([H])(N([H])C(=O)[C@@]([H])(N([H])[H])[C@]([H])(C([H])([H])[H])C([H])([H])C([H])([H])[H])C([H])([H])C(=O)O[H])C([H])([H])c1c([H])c([H])c(O[H])c([H])c1[H]


 46 46  0  0  0  0  0  0  0  0999 V2000
  -86.6711   28.4540    0.8935 C   0  0  0  0  0  0  0  0  0  0  0  0
  -87.6193   29.1587   -1.2879 C   0  0  0  0  0  0  0  0  0  0  0  0
  -86.7713   28.3342   -1.8043 O   0  0  0  0  0  0  0  0  0  0  0  0
  -87.6104   29.2662    0.0806 N   0  0  0  0  0  0  0  0  0  0  0  0
  -88.2283   29.8712    0.6278 H   0  0  0  0  0  0  0  0  0  0  0  0
  -88.4645   29.8390   -2.2945 C   0  0  0  0  0  0  0  0  0  0  0  0
  -90.8586   29.1659   -2.5027 C   0  0  0  0  0  0  0  0  0  0  0  0
  -90.6184   28.6862   -3.6214 O   0  0  0  0  0  0  0  0  0  0  0  0
  -89.8554   29.7754   -1.7422 N   0  0  0  0  0  0  0  0  0  0  0  0
  -90.0343   30.1841   -0.8102 H   0  0  0  0  0  0  0  0  0  0  0  0
  -92.2310   29.0926   -1.9565 C   0  0  0  0  0  0  0  0  0  0  0  0
  -92.1902   29.1310   -0.4984 N   0  0  0  0  0  0  0  0  0  0  0  0
  -93.1015   29.4199   -0.1187 H   0  0  0  0  0  0  0  0  0  0  0  0
  -91.8653   28.2135   -0.1634 H   0  0  0  0  0  0  0  0  0  0  0  0
  -93.1770   30.1172   -2.4631 C   0  0  0  0  0  0  0  0  0  0  0  0
  -94.6251   29.8183   -2.1083 C   0  0  0  0  0  0  0  0  0  0  0  0
  -92.7744   31.9218   -4.0554 C   0  0  0  0  0  0  0  0  0  0  0  0
  -93.0914   30.4268   -3.9219 C   0  0  0  0  0  0  0  0  0  0  0  0
  -88.1146   31.2553   -2.5720 C   0  0  0  0  0  0  0  0  0  0  0  0
  -88.8534   32.2355   -1.7700 C   0  0  0  0  0  0  0  0  0  0  0  0
  -89.8412   32.9967   -2.3640 O   0  0  0  0  0  0  0  0  0  0  0  0
  -88.6269   32.4183   -0.5411 O   0  0  0  0  0  0  0  0  0  0  0  0
  -89.7143   33.9562   -2.6832 H   0  0  0  0  0  0  0  0  0  0  0  0
  -87.5223   27.4269    1.5598 C   0  0  0  0  0  0  0  0  0  0  0  0
  -87.0480   26.3279    1.8871 O   0  0  0  0  0  0  0  0  0  0  0  0
  -88.8786   27.7729    1.7996 N   0  0  0  0  0  0  0  0  0  0  0  0
  -89.2934   28.6669    1.5468 H   0  0  0  0  0  0  0  0  0  0  0  0
  -89.7228   26.7671    2.4576 C   0  0  0  0  0  0  0  0  0  0  0  0
  -90.5695   26.1123    1.4655 C   0  0  0  0  0  0  0  0  0  0  0  0
  -91.6212   26.7318    0.8272 O   0  0  0  0  0  0  0  0  0  0  0  0
  -90.3739   24.8938    1.1247 O   0  0  0  0  0  0  0  0  0  0  0  0
  -91.4331   27.2512   -0.0328 H   0  0  0  0  0  0  0  0  0  0  0  0
  -90.5140   27.5607    3.4996 C   0  0  0  0  0  0  0  0  0  0  0  0
  -90.6413   26.7745    4.7434 C   0  0  0  0  0  0  0  0  0  0  0  0
  -90.0355   27.1634    5.9014 O   0  0  0  0  0  0  0  0  0  0  0  0
  -91.3433   25.7087    4.7053 O   0  0  0  0  0  0  0  0  0  0  0  0
  -89.4766   27.9688    6.0516 H   0  0  0  0  0  0  0  0  0  0  0  0
  -85.9347   29.2487    1.9167 C   0  0  0  0  0  0  0  0  0  0  0  0
  -85.0405   30.2854    1.3645 C   0  0  0  0  0  0  0  0  0  0  0  0
  -85.5206   31.4034    0.7610 C   0  0  0  0  0  0  0  0  0  0  0  0
  -84.6777   32.3723    0.2333 C   0  0  0  0  0  0  0  0  0  0  0  0
  -83.3032   32.2117    0.3158 C   0  0  0  0  0  0  0  0  0  0  0  0
  -82.4515   33.1657   -0.2043 O   0  0  0  0  0  0  0  0  0  0  0  0
  -82.8090   31.0747    0.9306 C   0  0  0  0  0  0  0  0  0  0  0  0
  -83.6689   30.1449    1.4366 C   0  0  0  0  0  0  0  0  0  0  0  0
  -82.1632   33.0645   -1.1679 H   0  0  0  0  0  0  0  0  0  0  0  0
 17 18  1  0  0  0
 18 15  1  0  0  0
 15 16  1  0  0  0
 15 11  1  0  0  0
 11 12  1  0  0  0
 11  7  1  0  0  0
  7  8  2  0  0  0
  7  9  1  0  0  0
  9  6  1  0  0  0
  6 19  1  0  0  0
 19 20  1  0  0  0
 20 21  1  0  0  0
 20 22  2  0  0  0
  6  2  1  0  0  0
  2  3  2  0  0  0
  2  4  1  0  0  0
  4  1  1  0  0  0
  1 38  1  0  0  0
 38 39  1  0  0  0
 39 40  2  0  0  0
 40 41  1  0  0  0
 41 42  2  0  0  0
 42 43  1  0  0  0
 42 44  1  0  0  0
 44 45  2  0  0  0
  1 24  1  0  0  0
 24 25  2  0  0  0
 24 26  1  0  0  0
 26 28  1  0  0  0
 28 33  1  0  0  0
 33 34  1  0  0  0
 34 35  1  0  0  0
 34 36  2  0  0  0
 28 29  1  0  0  0
 29 30  1  0  0  0
 29 31  2  0  0  0
 45 39  1  0  0  0
 12 13  1  0  0  0
 12 14  1  0  0  0
  9 10  1  0  0  0
 21 23  1  0  0  0
  4  5  1  0  0  0
 43 46  1  0  0  0
 26 27  1  0  0  0
 35 37  1  0  0  0
 30 32  1  0  0  0
M  END
> <minimizedAffinity>
-8.09516

> <CNNscore>
0.0839578137

> <CNNaffinity>
5.6878952980

> <CNN_VS>
0.4775432646

> <CNNaffinity_variance>
0.3429887295

$$$$
[H]OC(=O)c1c([H])c([H])c2nc(C([H])([H])[H])n(C([H])([H])c3c([H])c([H])c(-n4c([H])c([H])c(OC([H])([H])[H])c4[H])c([H])c3[H])c(=O)c2c1[H]


 30 33  0  0  0  0  0  0  0  0999 V2000
  -86.8032   31.6112   -0.2145 N   0  0  0  0  0  0  0  0  0  0  0  0
  -85.8316   32.5034   -0.4750 C   0  0  0  0  0  0  0  0  0  0  0  0
  -86.0177   33.7935   -1.1615 C   0  0  0  0  0  0  0  0  0  0  0  0
  -84.5446   32.2496   -0.0792 N   0  0  0  0  0  0  0  0  0  0  0  0
  -84.1810   31.1415    0.5682 C   0  0  0  0  0  0  0  0  0  0  0  0
  -82.8745   30.8926    0.9649 C   0  0  0  0  0  0  0  0  0  0  0  0
  -82.5477   29.7305    1.6329 C   0  0  0  0  0  0  0  0  0  0  0  0
  -83.5034   28.7733    1.9318 C   0  0  0  0  0  0  0  0  0  0  0  0
  -84.7902   29.0590    1.5200 C   0  0  0  0  0  0  0  0  0  0  0  0
  -85.1348   30.2184    0.8499 C   0  0  0  0  0  0  0  0  0  0  0  0
  -86.4240   30.4886    0.4453 C   0  0  0  0  0  0  0  0  0  0  0  0
  -87.3070   29.6414    0.7079 O   0  0  0  0  0  0  0  0  0  0  0  0
  -83.1538   27.5489    2.6366 C   0  0  0  0  0  0  0  0  0  0  0  0
  -81.8252   27.1966    2.7837 O   0  0  0  0  0  0  0  0  0  0  0  0
  -84.0217   26.7899    3.1228 O   0  0  0  0  0  0  0  0  0  0  0  0
  -81.2562   27.7254    3.4073 H   0  0  0  0  0  0  0  0  0  0  0  0
  -88.1422   31.8818   -0.6109 C   0  0  0  0  0  0  0  0  0  0  0  0
  -90.4347   28.6300   -2.3169 C   0  0  0  0  0  0  0  0  0  0  0  0
  -90.7922   29.2908   -1.1669 C   0  0  0  0  0  0  0  0  0  0  0  0
  -90.0472   30.3219   -0.6341 C   0  0  0  0  0  0  0  0  0  0  0  0
  -88.8647   30.7650   -1.2421 C   0  0  0  0  0  0  0  0  0  0  0  0
  -88.5053   30.1069   -2.3890 C   0  0  0  0  0  0  0  0  0  0  0  0
  -89.2764   29.0592   -2.9162 C   0  0  0  0  0  0  0  0  0  0  0  0
  -92.6093   26.3448   -4.1128 C   0  0  0  0  0  0  0  0  0  0  0  0
  -91.9850   25.5012   -3.2207 C   0  0  0  0  0  0  0  0  0  0  0  0
  -91.1306   26.2808   -2.4853 C   0  0  0  0  0  0  0  0  0  0  0  0
  -91.1931   27.5666   -2.8762 N   0  0  0  0  0  0  0  0  0  0  0  0
  -92.0973   27.6049   -3.8712 C   0  0  0  0  0  0  0  0  0  0  0  0
  -94.1701   24.7259   -4.9926 C   0  0  0  0  0  0  0  0  0  0  0  0
  -93.5614   25.9809   -5.0590 O   0  0  0  0  0  0  0  0  0  0  0  0
 29 30  1  0  0  0
 30 24  1  0  0  0
 24 25  1  0  0  0
 25 26  2  0  0  0
 26 27  1  0  0  0
 27 28  1  0  0  0
 27 18  1  0  0  0
 18 19  2  0  0  0
 19 20  1  0  0  0
 20 21  2  0  0  0
 21 17  1  0  0  0
 17  1  1  0  0  0
  1  2  1  0  0  0
  2  3  1  0  0  0
  2  4  2  0  0  0
  4  5  1  0  0  0
  5  6  2  0  0  0
  6  7  1  0  0  0
  7  8  2  0  0  0
  8  9  1  0  0  0
  9 10  2  0  0  0
 10 11  1  0  0  0
 11 12  2  0  0  0
  8 13  1  0  0  0
 13 14  1  0  0  0
 13 15  2  0  0  0
 21 22  1  0  0  0
 22 23  2  0  0  0
 28 24  2  0  0  0
 23 18  1  0  0  0
 11  1  1  0  0  0
 10  5  1  0  0  0
 14 16  1  0  0  0
M  END
> <minimizedAffinity>
-8.78318

> <CNNscore>
0.5693433881

> <CNNaffinity>
6.5901427269

> <CNN_VS>
3.7520542145

> <CNNaffinity_variance>
0.2264587879

$$$$
[H]OC(=O)c1c([H])c([H])c2nc(C([H])([H])[H])n(C([H])([H])c3c([H])c([H])c(-n4c([H])c([H])c(OC([H])([H])[H])c4[H])c([H])c3[H])c(=O)c2c1[H]


 30 33  0  0  0  0  0  0  0  0999 V2000
  -86.7388   31.6070   -0.2158 N   0  0  0  0  0  0  0  0  0  0  0  0
  -85.7676   32.5022   -0.4678 C   0  0  0  0  0  0  0  0  0  0  0  0
  -85.9521   33.7927   -1.1540 C   0  0  0  0  0  0  0  0  0  0  0  0
  -84.4830   32.2513   -0.0628 N   0  0  0  0  0  0  0  0  0  0  0  0
  -84.1212   31.1433    0.5859 C   0  0  0  0  0  0  0  0  0  0  0  0
  -82.8171   30.8974    0.9921 C   0  0  0  0  0  0  0  0  0  0  0  0
  -82.4922   29.7353    1.6609 C   0  0  0  0  0  0  0  0  0  0  0  0
  -83.4475   28.7751    1.9514 C   0  0  0  0  0  0  0  0  0  0  0  0
  -84.7320   29.0579    1.5304 C   0  0  0  0  0  0  0  0  0  0  0  0
  -85.0747   30.2172    0.8592 C   0  0  0  0  0  0  0  0  0  0  0  0
  -86.3615   30.4845    0.4454 C   0  0  0  0  0  0  0  0  0  0  0  0
  -87.2442   29.6347    0.7002 O   0  0  0  0  0  0  0  0  0  0  0  0
  -83.0999   27.5507    2.6572 C   0  0  0  0  0  0  0  0  0  0  0  0
  -81.7730   27.1847    2.7849 O   0  0  0  0  0  0  0  0  0  0  0  0
  -83.9680   26.8037    3.1612 O   0  0  0  0  0  0  0  0  0  0  0  0
  -81.1885   27.7106    3.3965 H   0  0  0  0  0  0  0  0  0  0  0  0
  -88.0755   31.8745   -0.6219 C   0  0  0  0  0  0  0  0  0  0  0  0
  -90.3855   28.5997   -2.2589 C   0  0  0  0  0  0  0  0  0  0  0  0
  -90.7681   29.3230   -1.1555 C   0  0  0  0  0  0  0  0  0  0  0  0
  -90.0173   30.3606   -0.6439 C   0  0  0  0  0  0  0  0  0  0  0  0
  -88.8025   30.7462   -1.2269 C   0  0  0  0  0  0  0  0  0  0  0  0
  -88.4180   30.0257   -2.3272 C   0  0  0  0  0  0  0  0  0  0  0  0
  -89.1955   28.9724   -2.8334 C   0  0  0  0  0  0  0  0  0  0  0  0
  -92.0480   25.5177   -3.2147 C   0  0  0  0  0  0  0  0  0  0  0  0
  -92.6078   26.4250   -4.0868 C   0  0  0  0  0  0  0  0  0  0  0  0
  -92.0363   27.6378   -3.8018 C   0  0  0  0  0  0  0  0  0  0  0  0
  -91.1495   27.5289   -2.7960 N   0  0  0  0  0  0  0  0  0  0  0  0
  -91.1572   26.2325   -2.4377 C   0  0  0  0  0  0  0  0  0  0  0  0
  -91.4676   23.2922   -2.4789 C   0  0  0  0  0  0  0  0  0  0  0  0
  -92.3357   24.1588   -3.1464 O   0  0  0  0  0  0  0  0  0  0  0  0
 29 30  1  0  0  0
 30 24  1  0  0  0
 24 25  1  0  0  0
 25 26  2  0  0  0
 26 27  1  0  0  0
 27 28  1  0  0  0
 27 18  1  0  0  0
 18 19  2  0  0  0
 19 20  1  0  0  0
 20 21  2  0  0  0
 21 17  1  0  0  0
 17  1  1  0  0  0
  1  2  1  0  0  0
  2  3  1  0  0  0
  2  4  2  0  0  0
  4  5  1  0  0  0
  5  6  2  0  0  0
  6  7  1  0  0  0
  7  8  2  0  0  0
  8  9  1  0  0  0
  9 10  2  0  0  0
 10 11  1  0  0  0
 11 12  2  0  0  0
  8 13  1  0  0  0
 13 14  1  0  0  0
 13 15  2  0  0  0
 21 22  1  0  0  0
 22 23  2  0  0  0
 28 24  2  0  0  0
 23 18  1  0  0  0
 11  1  1  0  0  0
 10  5  1  0  0  0
 14 16  1  0  0  0
M  END
> <minimizedAffinity>
-8.90732

> <CNNscore>
0.5531329513

> <CNNaffinity>
6.6098723412

> <CNN_VS>
3.6561381817

> <CNNaffinity_variance>
0.1950302571

$$$$
[H]OC(=O)c1c([H])c([H])c2nc(C([H])([H])[H])n(C([H])([H])c3c([H])c([H])c(-n4c([H])c([H])c(OC([H])([H])[H])c4[H])c([H])c3[H])c(=O)c2c1[H]


 30 33  0  0  0  0  0  0  0  0999 V2000
  -86.5207   31.6313   -1.0651 N   0  0  0  0  0  0  0  0  0  0  0  0
  -86.4240   32.6957   -0.2491 C   0  0  0  0  0  0  0  0  0  0  0  0
  -87.5492   33.5344    0.1986 C   0  0  0  0  0  0  0  0  0  0  0  0
  -85.2030   33.0682    0.2487 N   0  0  0  0  0  0  0  0  0  0  0  0
  -84.0689   32.4242   -0.0311 C   0  0  0  0  0  0  0  0  0  0  0  0
  -82.8362   32.8091    0.4774 C   0  0  0  0  0  0  0  0  0  0  0  0
  -81.6904   32.1100    0.1587 C   0  0  0  0  0  0  0  0  0  0  0  0
  -81.7245   31.0044   -0.6753 C   0  0  0  0  0  0  0  0  0  0  0  0
  -82.9695   30.6546   -1.1598 C   0  0  0  0  0  0  0  0  0  0  0  0
  -84.1275   31.3441   -0.8505 C   0  0  0  0  0  0  0  0  0  0  0  0
  -85.3626   30.9823   -1.3425 C   0  0  0  0  0  0  0  0  0  0  0  0
  -85.4209   29.9836   -2.0945 O   0  0  0  0  0  0  0  0  0  0  0  0
  -80.5130   30.2701   -1.0088 C   0  0  0  0  0  0  0  0  0  0  0  0
  -80.5729   29.2146   -1.8994 O   0  0  0  0  0  0  0  0  0  0  0  0
  -79.4011   30.5604   -0.5135 O   0  0  0  0  0  0  0  0  0  0  0  0
  -80.7270   29.4106   -2.8638 H   0  0  0  0  0  0  0  0  0  0  0  0
  -87.7904   31.2346   -1.5690 C   0  0  0  0  0  0  0  0  0  0  0  0
  -89.2931   33.1111   -5.1692 C   0  0  0  0  0  0  0  0  0  0  0  0
  -89.8382   31.9767   -4.6187 C   0  0  0  0  0  0  0  0  0  0  0  0
  -89.3436   31.3888   -3.4733 C   0  0  0  0  0  0  0  0  0  0  0  0
  -88.2405   31.9205   -2.7916 C   0  0  0  0  0  0  0  0  0  0  0  0
  -87.6943   33.0516   -3.3391 C   0  0  0  0  0  0  0  0  0  0  0  0
  -88.2114   33.6356   -4.5059 C   0  0  0  0  0  0  0  0  0  0  0  0
  -90.1525   35.1195   -8.0680 C   0  0  0  0  0  0  0  0  0  0  0  0
  -91.0318   34.0655   -8.1817 C   0  0  0  0  0  0  0  0  0  0  0  0
  -90.7831   33.2387   -7.1172 C   0  0  0  0  0  0  0  0  0  0  0  0
  -89.7929   33.7267   -6.3481 N   0  0  0  0  0  0  0  0  0  0  0  0
  -89.4080   34.8766   -6.9301 C   0  0  0  0  0  0  0  0  0  0  0  0
  -91.1088   37.1050   -9.0552 C   0  0  0  0  0  0  0  0  0  0  0  0
  -90.0507   36.2016   -8.9358 O   0  0  0  0  0  0  0  0  0  0  0  0
 29 30  1  0  0  0
 30 24  1  0  0  0
 24 25  1  0  0  0
 25 26  2  0  0  0
 26 27  1  0  0  0
 27 28  1  0  0  0
 27 18  1  0  0  0
 18 19  2  0  0  0
 19 20  1  0  0  0
 20 21  2  0  0  0
 21 17  1  0  0  0
 17  1  1  0  0  0
  1  2  1  0  0  0
  2  3  1  0  0  0
  2  4  2  0  0  0
  4  5  1  0  0  0
  5  6  2  0  0  0
  6  7  1  0  0  0
  7  8  2  0  0  0
  8  9  1  0  0  0
  9 10  2  0  0  0
 10 11  1  0  0  0
 11 12  2  0  0  0
  8 13  1  0  0  0
 13 14  1  0  0  0
 13 15  2  0  0  0
 21 22  1  0  0  0
 22 23  2  0  0  0
 28 24  2  0  0  0
 23 18  1  0  0  0
 11  1  1  0  0  0
 10  5  1  0  0  0
 14 16  1  0  0  0
M  END
> <minimizedAffinity>
19.35629

> <CNNscore>
0.4232944548

> <CNNaffinity>
5.8373775482

> <CNN_VS>
2.4709296227

> <CNNaffinity_variance>
1.6069037914

$$$$
[H]OC(=O)c1c([H])c([H])c2nc(C([H])([H])[H])n(C([H])([H])c3c([H])c([H])c(-n4c([H])c([H])c(OC([H])([H])[H])c4[H])c([H])c3[H])c(=O)c2c1[H]


 30 33  0  0  0  0  0  0  0  0999 V2000
  -86.4096   32.4857   -0.6359 N   0  0  0  0  0  0  0  0  0  0  0  0
  -87.5983   31.8605   -0.5708 C   0  0  0  0  0  0  0  0  0  0  0  0
  -88.8614   32.3652   -1.1364 C   0  0  0  0  0  0  0  0  0  0  0  0
  -87.6986   30.6430    0.0496 N   0  0  0  0  0  0  0  0  0  0  0  0
  -86.6624   30.0173    0.6100 C   0  0  0  0  0  0  0  0  0  0  0  0
  -86.7735   28.7840    1.2369 C   0  0  0  0  0  0  0  0  0  0  0  0
  -85.6714   28.1764    1.8022 C   0  0  0  0  0  0  0  0  0  0  0  0
  -84.4196   28.7687    1.7669 C   0  0  0  0  0  0  0  0  0  0  0  0
  -84.3518   29.9945    1.1344 C   0  0  0  0  0  0  0  0  0  0  0  0
  -85.4461   30.6172    0.5628 C   0  0  0  0  0  0  0  0  0  0  0  0
  -85.3619   31.8411   -0.0647 C   0  0  0  0  0  0  0  0  0  0  0  0
  -84.2407   32.3948   -0.1143 O   0  0  0  0  0  0  0  0  0  0  0  0
  -83.2599   28.1239    2.3647 C   0  0  0  0  0  0  0  0  0  0  0  0
  -83.4251   26.9804    3.1237 O   0  0  0  0  0  0  0  0  0  0  0  0
  -82.1003   28.5702    2.2168 O   0  0  0  0  0  0  0  0  0  0  0  0
  -83.6676   26.1312    2.6628 H   0  0  0  0  0  0  0  0  0  0  0  0
  -86.3019   33.7421   -1.2941 C   0  0  0  0  0  0  0  0  0  0  0  0
  -88.9417   34.1804   -4.6969 C   0  0  0  0  0  0  0  0  0  0  0  0
  -88.0142   33.1741   -4.5789 C   0  0  0  0  0  0  0  0  0  0  0  0
  -87.1771   33.0520   -3.4897 C   0  0  0  0  0  0  0  0  0  0  0  0
  -87.2230   33.9588   -2.4220 C   0  0  0  0  0  0  0  0  0  0  0  0
  -88.1469   34.9642   -2.5375 C   0  0  0  0  0  0  0  0  0  0  0  0
  -88.9903   35.0724   -3.6542 C   0  0  0  0  0  0  0  0  0  0  0  0
  -91.4756   34.0698   -7.2936 C   0  0  0  0  0  0  0  0  0  0  0  0
  -90.6614   35.0896   -7.7343 C   0  0  0  0  0  0  0  0  0  0  0  0
  -89.6588   35.2110   -6.8076 C   0  0  0  0  0  0  0  0  0  0  0  0
  -89.8099   34.3174   -5.8133 N   0  0  0  0  0  0  0  0  0  0  0  0
  -90.9209   33.6201   -6.1112 C   0  0  0  0  0  0  0  0  0  0  0  0
  -93.4411   32.6670   -7.2908 C   0  0  0  0  0  0  0  0  0  0  0  0
  -92.6220   33.6020   -7.9271 O   0  0  0  0  0  0  0  0  0  0  0  0
 29 30  1  0  0  0
 30 24  1  0  0  0
 24 25  1  0  0  0
 25 26  2  0  0  0
 26 27  1  0  0  0
 27 28  1  0  0  0
 27 18  1  0  0  0
 18 19  2  0  0  0
 19 20  1  0  0  0
 20 21  2  0  0  0
 21 17  1  0  0  0
 17  1  1  0  0  0
  1  2  1  0  0  0
  2  3  1  0  0  0
  2  4  2  0  0  0
  4  5  1  0  0  0
  5  6  2  0  0  0
  6  7  1  0  0  0
  7  8  2  0  0  0
  8  9  1  0  0  0
  9 10  2  0  0  0
 10 11  1  0  0  0
 11 12  2  0  0  0
  8 13  1  0  0  0
 13 14  1  0  0  0
 13 15  2  0  0  0
 21 22  1  0  0  0
 22 23  2  0  0  0
 28 24  2  0  0  0
 23 18  1  0  0  0
 11  1  1  0  0  0
 10  5  1  0  0  0
 14 16  1  0  0  0
M  END
> <minimizedAffinity>
-8.84580

> <CNNscore>
0.3079887331

> <CNNaffinity>
6.1427807808

> <CNN_VS>
1.8919072151

> <CNNaffinity_variance>
0.1440103203

$$$$
[H]OC(=O)c1c([H])c([H])c2nc(C([H])([H])[H])n(C([H])([H])c3c([H])c([H])c(-n4c([H])c([H])c(OC([H])([H])[H])c4[H])c([H])c3[H])c(=O)c2c1[H]


 30 33  0  0  0  0  0  0  0  0999 V2000
  -90.9106   26.9735    1.1911 N   0  0  0  0  0  0  0  0  0  0  0  0
  -90.8663   27.1151    2.5276 C   0  0  0  0  0  0  0  0  0  0  0  0
  -90.9722   28.3913    3.2557 C   0  0  0  0  0  0  0  0  0  0  0  0
  -90.7262   26.0125    3.3288 N   0  0  0  0  0  0  0  0  0  0  0  0
  -90.6285   24.7692    2.8557 C   0  0  0  0  0  0  0  0  0  0  0  0
  -90.4863   23.6580    3.6749 C   0  0  0  0  0  0  0  0  0  0  0  0
  -90.3894   22.3911    3.1375 C   0  0  0  0  0  0  0  0  0  0  0  0
  -90.4298   22.1794    1.7691 C   0  0  0  0  0  0  0  0  0  0  0  0
  -90.5720   23.3103    0.9895 C   0  0  0  0  0  0  0  0  0  0  0  0
  -90.6706   24.5869    1.5116 C   0  0  0  0  0  0  0  0  0  0  0  0
  -90.8119   25.7057    0.7198 C   0  0  0  0  0  0  0  0  0  0  0  0
  -90.8561   25.5406   -0.5200 O   0  0  0  0  0  0  0  0  0  0  0  0
  -90.3271   20.8409    1.2068 C   0  0  0  0  0  0  0  0  0  0  0  0
  -89.4807   19.9151    1.7877 O   0  0  0  0  0  0  0  0  0  0  0  0
  -90.9849   20.4888    0.2023 O   0  0  0  0  0  0  0  0  0  0  0  0
  -89.7273   19.5310    2.6731 H   0  0  0  0  0  0  0  0  0  0  0  0
  -91.0722   28.1164    0.3599 C   0  0  0  0  0  0  0  0  0  0  0  0
  -87.6769   30.7341   -0.2393 C   0  0  0  0  0  0  0  0  0  0  0  0
  -88.9819   31.1345   -0.3926 C   0  0  0  0  0  0  0  0  0  0  0  0
  -90.0522   30.2857   -0.2025 C   0  0  0  0  0  0  0  0  0  0  0  0
  -89.8712   28.9452    0.1644 C   0  0  0  0  0  0  0  0  0  0  0  0
  -88.5703   28.5429    0.3172 C   0  0  0  0  0  0  0  0  0  0  0  0
  -87.4937   29.4214    0.1191 C   0  0  0  0  0  0  0  0  0  0  0  0
  -84.5384   32.5538   -0.3610 C   0  0  0  0  0  0  0  0  0  0  0  0
  -85.3445   33.3229   -1.1709 C   0  0  0  0  0  0  0  0  0  0  0  0
  -86.5703   32.7098   -1.1896 C   0  0  0  0  0  0  0  0  0  0  0  0
  -86.5655   31.5982   -0.4318 N   0  0  0  0  0  0  0  0  0  0  0  0
  -85.3230   31.5036    0.0744 C   0  0  0  0  0  0  0  0  0  0  0  0
  -82.4149   31.7949    0.5025 C   0  0  0  0  0  0  0  0  0  0  0  0
  -83.2045   32.8023   -0.0557 O   0  0  0  0  0  0  0  0  0  0  0  0
 29 30  1  0  0  0
 30 24  1  0  0  0
 24 25  1  0  0  0
 25 26  2  0  0  0
 26 27  1  0  0  0
 27 28  1  0  0  0
 27 18  1  0  0  0
 18 19  2  0  0  0
 19 20  1  0  0  0
 20 21  2  0  0  0
 21 17  1  0  0  0
 17  1  1  0  0  0
  1  2  1  0  0  0
  2  3  1  0  0  0
  2  4  2  0  0  0
  4  5  1  0  0  0
  5  6  2  0  0  0
  6  7  1  0  0  0
  7  8  2  0  0  0
  8  9  1  0  0  0
  9 10  2  0  0  0
 10 11  1  0  0  0
 11 12  2  0  0  0
  8 13  1  0  0  0
 13 14  1  0  0  0
 13 15  2  0  0  0
 21 22  1  0  0  0
 22 23  2  0  0  0
 28 24  2  0  0  0
 23 18  1  0  0  0
 11  1  1  0  0  0
 10  5  1  0  0  0
 14 16  1  0  0  0
M  END
> <minimizedAffinity>
-8.27722

> <CNNscore>
0.1388129145

> <CNNaffinity>
5.9565248489

> <CNN_VS>
0.8268425465

> <CNNaffinity_variance>
0.0832174569

$$$$
[H]OC(=O)c1c([H])c([H])c2nc(C([H])([H])[H])n(C([H])([H])c3c([H])c([H])c(-n4c([H])c([H])c(OC([H])([H])[H])c4[H])c([H])c3[H])c(=O)c2c1[H]


 30 33  0  0  0  0  0  0  0  0999 V2000
  -92.1379   27.5039   -2.3308 N   0  0  0  0  0  0  0  0  0  0  0  0
  -92.3931   27.1187   -3.5936 C   0  0  0  0  0  0  0  0  0  0  0  0
  -92.5273   28.0198   -4.7512 C   0  0  0  0  0  0  0  0  0  0  0  0
  -92.5357   25.7883   -3.8881 N   0  0  0  0  0  0  0  0  0  0  0  0
  -92.4344   24.8198   -2.9765 C   0  0  0  0  0  0  0  0  0  0  0  0
  -92.5808   23.4744   -3.2840 C   0  0  0  0  0  0  0  0  0  0  0  0
  -92.4669   22.5089   -2.3051 C   0  0  0  0  0  0  0  0  0  0  0  0
  -92.2037   22.8416   -0.9864 C   0  0  0  0  0  0  0  0  0  0  0  0
  -92.0649   24.1900   -0.7224 C   0  0  0  0  0  0  0  0  0  0  0  0
  -92.1761   25.1703   -1.6913 C   0  0  0  0  0  0  0  0  0  0  0  0
  -92.0352   26.5121   -1.4114 C   0  0  0  0  0  0  0  0  0  0  0  0
  -91.7921   26.8385   -0.2279 O   0  0  0  0  0  0  0  0  0  0  0  0
  -92.0843   21.8195    0.0428 C   0  0  0  0  0  0  0  0  0  0  0  0
  -92.4821   22.0984    1.3370 O   0  0  0  0  0  0  0  0  0  0  0  0
  -91.6286   20.6799   -0.2007 O   0  0  0  0  0  0  0  0  0  0  0  0
  -93.4553   22.1876    1.5296 H   0  0  0  0  0  0  0  0  0  0  0  0
  -91.9737   28.8839   -2.0276 C   0  0  0  0  0  0  0  0  0  0  0  0
  -88.0464   30.1835   -0.7519 C   0  0  0  0  0  0  0  0  0  0  0  0
  -89.1892   30.3824   -0.0162 C   0  0  0  0  0  0  0  0  0  0  0  0
  -90.4339   29.9662   -0.4400 C   0  0  0  0  0  0  0  0  0  0  0  0
  -90.6109   29.3051   -1.6631 C   0  0  0  0  0  0  0  0  0  0  0  0
  -89.4725   29.1061   -2.3995 C   0  0  0  0  0  0  0  0  0  0  0  0
  -88.2141   29.5373   -1.9517 C   0  0  0  0  0  0  0  0  0  0  0  0
  -84.6879   30.6874    0.5296 C   0  0  0  0  0  0  0  0  0  0  0  0
  -84.9954   31.9372    0.0388 C   0  0  0  0  0  0  0  0  0  0  0  0
  -86.2633   31.8492   -0.4743 C   0  0  0  0  0  0  0  0  0  0  0  0
  -86.7585   30.6070   -0.3268 N   0  0  0  0  0  0  0  0  0  0  0  0
  -85.7948   29.8974    0.2871 C   0  0  0  0  0  0  0  0  0  0  0  0
  -83.4536   29.1879    1.9645 C   0  0  0  0  0  0  0  0  0  0  0  0
  -83.4961   30.3161    1.1428 O   0  0  0  0  0  0  0  0  0  0  0  0
 29 30  1  0  0  0
 30 24  1  0  0  0
 24 25  1  0  0  0
 25 26  2  0  0  0
 26 27  1  0  0  0
 27 28  1  0  0  0
 27 18  1  0  0  0
 18 19  2  0  0  0
 19 20  1  0  0  0
 20 21  2  0  0  0
 21 17  1  0  0  0
 17  1  1  0  0  0
  1  2  1  0  0  0
  2  3  1  0  0  0
  2  4  2  0  0  0
  4  5  1  0  0  0
  5  6  2  0  0  0
  6  7  1  0  0  0
  7  8  2  0  0  0
  8  9  1  0  0  0
  9 10  2  0  0  0
 10 11  1  0  0  0
 11 12  2  0  0  0
  8 13  1  0  0  0
 13 14  1  0  0  0
 13 15  2  0  0  0
 21 22  1  0  0  0
 22 23  2  0  0  0
 28 24  2  0  0  0
 23 18  1  0  0  0
 11  1  1  0  0  0
 10  5  1  0  0  0
 14 16  1  0  0  0
M  END
> <minimizedAffinity>
-6.68946

> <CNNscore>
0.1198726520

> <CNNaffinity>
5.5156183243

> <CNN_VS>
0.6611717939

> <CNNaffinity_variance>
0.1033280641

$$$$
[H]OC(=O)c1c([H])c([H])c2nc(C([H])([H])[H])n(C([H])([H])c3c([H])c([H])c(-n4c([H])c([H])c(OC([H])([H])[H])c4[H])c([H])c3[H])c(=O)c2c1[H]


 30 33  0  0  0  0  0  0  0  0999 V2000
  -88.6789   28.9738    0.1209 N   0  0  0  0  0  0  0  0  0  0  0  0
  -89.1769   30.1259   -0.3616 C   0  0  0  0  0  0  0  0  0  0  0  0
  -90.5820   30.3580   -0.7383 C   0  0  0  0  0  0  0  0  0  0  0  0
  -88.3571   31.2116   -0.5238 N   0  0  0  0  0  0  0  0  0  0  0  0
  -87.0573   31.2009   -0.2248 C   0  0  0  0  0  0  0  0  0  0  0  0
  -86.2342   32.3057   -0.3929 C   0  0  0  0  0  0  0  0  0  0  0  0
  -84.8946   32.2452   -0.0687 C   0  0  0  0  0  0  0  0  0  0  0  0
  -84.3222   31.0881    0.4338 C   0  0  0  0  0  0  0  0  0  0  0  0
  -85.1747   30.0123    0.5859 C   0  0  0  0  0  0  0  0  0  0  0  0
  -86.5192   30.0559    0.2659 C   0  0  0  0  0  0  0  0  0  0  0  0
  -87.3568   28.9732    0.4233 C   0  0  0  0  0  0  0  0  0  0  0  0
  -86.8647   27.9171    0.8803 O   0  0  0  0  0  0  0  0  0  0  0  0
  -82.9084   31.0291    0.7744 C   0  0  0  0  0  0  0  0  0  0  0  0
  -82.0536   32.0215    0.3325 O   0  0  0  0  0  0  0  0  0  0  0  0
  -82.4278   30.1010    1.4624 O   0  0  0  0  0  0  0  0  0  0  0  0
  -82.1206   32.9275    0.7410 H   0  0  0  0  0  0  0  0  0  0  0  0
  -89.5331   27.8514    0.3047 C   0  0  0  0  0  0  0  0  0  0  0  0
  -91.8881   26.5480   -3.0858 C   0  0  0  0  0  0  0  0  0  0  0  0
  -92.4132   26.7720   -1.8364 C   0  0  0  0  0  0  0  0  0  0  0  0
  -91.6473   27.1825   -0.7654 C   0  0  0  0  0  0  0  0  0  0  0  0
  -90.2682   27.3998   -0.8883 C   0  0  0  0  0  0  0  0  0  0  0  0
  -89.7416   27.1763   -2.1335 C   0  0  0  0  0  0  0  0  0  0  0  0
  -90.5371   26.7584   -3.2116 C   0  0  0  0  0  0  0  0  0  0  0  0
  -94.0636   25.0161   -5.5549 C   0  0  0  0  0  0  0  0  0  0  0  0
  -93.5466   26.0838   -6.2549 C   0  0  0  0  0  0  0  0  0  0  0  0
  -92.7002   26.7352   -5.3959 C   0  0  0  0  0  0  0  0  0  0  0  0
  -92.6658   26.1253   -4.1972 N   0  0  0  0  0  0  0  0  0  0  0  0
  -93.4995   25.0744   -4.2953 C   0  0  0  0  0  0  0  0  0  0  0  0
  -95.3721   24.1178   -7.3747 C   0  0  0  0  0  0  0  0  0  0  0  0
  -94.9705   24.0788   -6.0379 O   0  0  0  0  0  0  0  0  0  0  0  0
 29 30  1  0  0  0
 30 24  1  0  0  0
 24 25  1  0  0  0
 25 26  2  0  0  0
 26 27  1  0  0  0
 27 28  1  0  0  0
 27 18  1  0  0  0
 18 19  2  0  0  0
 19 20  1  0  0  0
 20 21  2  0  0  0
 21 17  1  0  0  0
 17  1  1  0  0  0
  1  2  1  0  0  0
  2  3  1  0  0  0
  2  4  2  0  0  0
  4  5  1  0  0  0
  5  6  2  0  0  0
  6  7  1  0  0  0
  7  8  2  0  0  0
  8  9  1  0  0  0
  9 10  2  0  0  0
 10 11  1  0  0  0
 11 12  2  0  0  0
  8 13  1  0  0  0
 13 14  1  0  0  0
 13 15  2  0  0  0
 21 22  1  0  0  0
 22 23  2  0  0  0
 28 24  2  0  0  0
 23 18  1  0  0  0
 11  1  1  0  0  0
 10  5  1  0  0  0
 14 16  1  0  0  0
M  END
> <minimizedAffinity>
-7.76748

> <CNNscore>
0.1054207981

> <CNNaffinity>
5.5127658844

> <CNN_VS>
0.5811601877

> <CNNaffinity_variance>
0.1551185101

$$$$
[H]OC(=O)c1c([H])c([H])c2nc(C([H])([H])[H])n(C([H])([H])c3c([H])c([H])c(-n4c([H])c([H])c(OC([H])([H])[H])c4[H])c([H])c3[H])c(=O)c2c1[H]


 30 33  0  0  0  0  0  0  0  0999 V2000
  -85.8063   29.8741    0.6387 N   0  0  0  0  0  0  0  0  0  0  0  0
  -85.8017   29.7049    1.9726 C   0  0  0  0  0  0  0  0  0  0  0  0
  -85.1628   30.6071    2.9462 C   0  0  0  0  0  0  0  0  0  0  0  0
  -86.4410   28.6281    2.5286 N   0  0  0  0  0  0  0  0  0  0  0  0
  -87.0884   27.7084    1.8115 C   0  0  0  0  0  0  0  0  0  0  0  0
  -87.7331   26.6205    2.3833 C   0  0  0  0  0  0  0  0  0  0  0  0
  -88.3899   25.6953    1.5986 C   0  0  0  0  0  0  0  0  0  0  0  0
  -88.4318   25.8145    0.2191 C   0  0  0  0  0  0  0  0  0  0  0  0
  -87.7786   26.9102   -0.3100 C   0  0  0  0  0  0  0  0  0  0  0  0
  -87.1157   27.8467    0.4618 C   0  0  0  0  0  0  0  0  0  0  0  0
  -86.4682   28.9348   -0.0817 C   0  0  0  0  0  0  0  0  0  0  0  0
  -86.4956   29.0679   -1.3258 O   0  0  0  0  0  0  0  0  0  0  0  0
  -89.1260   24.8359   -0.6047 C   0  0  0  0  0  0  0  0  0  0  0  0
  -89.0981   23.4992   -0.2535 O   0  0  0  0  0  0  0  0  0  0  0  0
  -89.7575   25.1612   -1.6348 O   0  0  0  0  0  0  0  0  0  0  0  0
  -89.6153   23.2034    0.5448 H   0  0  0  0  0  0  0  0  0  0  0  0
  -85.1564   31.0005    0.0624 C   0  0  0  0  0  0  0  0  0  0  0  0
  -87.5367   33.8768   -2.1287 C   0  0  0  0  0  0  0  0  0  0  0  0
  -86.1687   33.7944   -2.2211 C   0  0  0  0  0  0  0  0  0  0  0  0
  -85.4249   32.8747   -1.5117 C   0  0  0  0  0  0  0  0  0  0  0  0
  -86.0277   31.9553   -0.6425 C   0  0  0  0  0  0  0  0  0  0  0  0
  -87.3923   32.0359   -0.5478 C   0  0  0  0  0  0  0  0  0  0  0  0
  -88.1324   32.9791   -1.2777 C   0  0  0  0  0  0  0  0  0  0  0  0
  -89.0382   36.6546   -3.9191 C   0  0  0  0  0  0  0  0  0  0  0  0
  -90.0376   35.7083   -3.9728 C   0  0  0  0  0  0  0  0  0  0  0  0
  -89.5605   34.6052   -3.3140 C   0  0  0  0  0  0  0  0  0  0  0  0
  -88.3146   34.8191   -2.8539 N   0  0  0  0  0  0  0  0  0  0  0  0
  -87.9960   36.0723   -3.2242 C   0  0  0  0  0  0  0  0  0  0  0  0
  -88.8007   39.0442   -3.6653 C   0  0  0  0  0  0  0  0  0  0  0  0
  -89.0883   37.9341   -4.4620 O   0  0  0  0  0  0  0  0  0  0  0  0
 29 30  1  0  0  0
 30 24  1  0  0  0
 24 25  1  0  0  0
 25 26  2  0  0  0
 26 27  1  0  0  0
 27 28  1  0  0  0
 27 18  1  0  0  0
 18 19  2  0  0  0
 19 20  1  0  0  0
 20 21  2  0  0  0
 21 17  1  0  0  0
 17  1  1  0  0  0
  1  2  1  0  0  0
  2  3  1  0  0  0
  2  4  2  0  0  0
  4  5  1  0  0  0
  5  6  2  0  0  0
  6  7  1  0  0  0
  7  8  2  0  0  0
  8  9  1  0  0  0
  9 10  2  0  0  0
 10 11  1  0  0  0
 11 12  2  0  0  0
  8 13  1  0  0  0
 13 14  1  0  0  0
 13 15  2  0  0  0
 21 22  1  0  0  0
 22 23  2  0  0  0
 28 24  2  0  0  0
 23 18  1  0  0  0
 11  1  1  0  0  0
 10  5  1  0  0  0
 14 16  1  0  0  0
M  END
> <minimizedAffinity>
-7.77593

> <CNNscore>
0.1011855006

> <CNNaffinity>
5.9249010086

> <CNN_VS>
0.5995140672

> <CNNaffinity_variance>
0.1315503418

$$$$
[H]OC(=O)c1c([H])c([H])c2nc(C([H])([H])[H])n(C([H])([H])c3c([H])c([H])c(-n4c([H])c([H])c(OC([H])([H])[H])c4[H])c([H])c3[H])c(=O)c2c1[H]


 30 33  0  0  0  0  0  0  0  0999 V2000
  -88.0266   33.0720   -3.5112 N   0  0  0  0  0  0  0  0  0  0  0  0
  -87.1309   33.8537   -2.8829 C   0  0  0  0  0  0  0  0  0  0  0  0
  -85.9205   33.3798   -2.1898 C   0  0  0  0  0  0  0  0  0  0  0  0
  -87.3010   35.2132   -2.8662 N   0  0  0  0  0  0  0  0  0  0  0  0
  -88.3281   35.8314   -3.4510 C   0  0  0  0  0  0  0  0  0  0  0  0
  -88.4926   37.2094   -3.4287 C   0  0  0  0  0  0  0  0  0  0  0  0
  -89.5727   37.8026   -4.0490 C   0  0  0  0  0  0  0  0  0  0  0  0
  -90.5287   37.0522   -4.7137 C   0  0  0  0  0  0  0  0  0  0  0  0
  -90.3284   35.6858   -4.7126 C   0  0  0  0  0  0  0  0  0  0  0  0
  -89.2519   35.0751   -4.0961 C   0  0  0  0  0  0  0  0  0  0  0  0
  -89.0664   33.7098   -4.1039 C   0  0  0  0  0  0  0  0  0  0  0  0
  -89.9139   33.0098   -4.7022 O   0  0  0  0  0  0  0  0  0  0  0  0
  -91.6665   37.6826   -5.3666 C   0  0  0  0  0  0  0  0  0  0  0  0
  -91.8180   37.5757   -6.7365 O   0  0  0  0  0  0  0  0  0  0  0  0
  -92.5271   38.3279   -4.7273 O   0  0  0  0  0  0  0  0  0  0  0  0
  -92.0772   36.6945   -7.1218 H   0  0  0  0  0  0  0  0  0  0  0  0
  -87.8416   31.6620   -3.5425 C   0  0  0  0  0  0  0  0  0  0  0  0
  -89.1553   29.3290   -0.1408 C   0  0  0  0  0  0  0  0  0  0  0  0
  -88.1838   28.9130   -1.0184 C   0  0  0  0  0  0  0  0  0  0  0  0
  -87.7806   29.6670   -2.1005 C   0  0  0  0  0  0  0  0  0  0  0  0
  -88.3442   30.9208   -2.3738 C   0  0  0  0  0  0  0  0  0  0  0  0
  -89.3141   31.3378   -1.5003 C   0  0  0  0  0  0  0  0  0  0  0  0
  -89.7117   30.5562   -0.4044 C   0  0  0  0  0  0  0  0  0  0  0  0
  -89.6809   27.1164    2.6883 C   0  0  0  0  0  0  0  0  0  0  0  0
  -90.8863   27.7791    2.6180 C   0  0  0  0  0  0  0  0  0  0  0  0
  -90.7868   28.6506    1.5648 C   0  0  0  0  0  0  0  0  0  0  0  0
  -89.5796   28.5622    0.9776 N   0  0  0  0  0  0  0  0  0  0  0  0
  -88.9041   27.6240    1.6651 C   0  0  0  0  0  0  0  0  0  0  0  0
  -90.3242   25.5182    4.3803 C   0  0  0  0  0  0  0  0  0  0  0  0
  -89.3352   26.1359    3.6122 O   0  0  0  0  0  0  0  0  0  0  0  0
 29 30  1  0  0  0
 30 24  1  0  0  0
 24 25  1  0  0  0
 25 26  2  0  0  0
 26 27  1  0  0  0
 27 28  1  0  0  0
 27 18  1  0  0  0
 18 19  2  0  0  0
 19 20  1  0  0  0
 20 21  2  0  0  0
 21 17  1  0  0  0
 17  1  1  0  0  0
  1  2  1  0  0  0
  2  3  1  0  0  0
  2  4  2  0  0  0
  4  5  1  0  0  0
  5  6  2  0  0  0
  6  7  1  0  0  0
  7  8  2  0  0  0
  8  9  1  0  0  0
  9 10  2  0  0  0
 10 11  1  0  0  0
 11 12  2  0  0  0
  8 13  1  0  0  0
 13 14  1  0  0  0
 13 15  2  0  0  0
 21 22  1  0  0  0
 22 23  2  0  0  0
 28 24  2  0  0  0
 23 18  1  0  0  0
 11  1  1  0  0  0
 10  5  1  0  0  0
 14 16  1  0  0  0
M  END
> <minimizedAffinity>
-6.67345

> <CNNscore>
0.0903238654

> <CNNaffinity>
5.4053797722

> <CNN_VS>
0.4882347882

> <CNNaffinity_variance>
0.1479988992

$$$$
[H]OC(=O)C([H])([H])C([H])([H])[C@@]([H])(C(=O)O[H])N([H])C(=O)[C@@]([H])(N([H])C(=O)[C@@]([H])(N([H])C(=O)[C@@]([H])(N([H])C(=O)[C@@]([H])(N([H])C(=O)[C@]([H])(N([H])[H])C([H])(C([H])([H])[H])C([H])([H])[H])C([H])([H])C([H])([H])C(=O)O[H])C([H])([H])C([H])([H])C(=O)O[H])C([H])([H])C([H])([H])C(=O)O[H])C([H])([H])C([H])([H])C(=O)O[H]


 66 65  0  0  0  0  0  0  0  0999 V2000
  -86.4814   27.3838    1.7767 C   0  0  0  0  0  0  0  0  0  0  0  0
  -85.7901   26.4763    2.3763 O   0  0  0  0  0  0  0  0  0  0  0  0
  -87.8448   27.4475    1.8305 N   0  0  0  0  0  0  0  0  0  0  0  0
  -88.2491   28.2987    1.2807 H   0  0  0  0  0  0  0  0  0  0  0  0
  -88.8685   26.6067    2.4743 C   0  0  0  0  0  0  0  0  0  0  0  0
  -89.3944   25.6833    1.5063 C   0  0  0  0  0  0  0  0  0  0  0  0
  -90.7215   25.4519    1.5941 O   0  0  0  0  0  0  0  0  0  0  0  0
  -88.8577   24.9260    0.4381 N   0  0  0  0  0  0  0  0  0  0  0  0
  -87.8717   24.9134    0.1601 H   0  0  0  0  0  0  0  0  0  0  0  0
  -89.7645   24.0757   -0.3231 C   0  0  0  0  0  0  0  0  0  0  0  0
  -89.6829   22.6314    0.0787 C   0  0  0  0  0  0  0  0  0  0  0  0
  -89.2395   21.8435   -0.7394 O   0  0  0  0  0  0  0  0  0  0  0  0
  -90.1141   22.3004    1.3445 N   0  0  0  0  0  0  0  0  0  0  0  0
  -90.5007   23.0809    1.9695 H   0  0  0  0  0  0  0  0  0  0  0  0
  -90.1452   21.0251    2.0838 C   0  0  0  0  0  0  0  0  0  0  0  0
  -90.9618   20.0124    1.4530 C   0  0  0  0  0  0  0  0  0  0  0  0
  -90.7745   19.3265    0.3215 O   0  0  0  0  0  0  0  0  0  0  0  0
  -92.0807   19.7025    2.0937 O   0  0  0  0  0  0  0  0  0  0  0  0
  -91.3911   19.4693   -0.4954 H   0  0  0  0  0  0  0  0  0  0  0  0
  -90.0971   21.2650    3.5075 C   0  0  0  0  0  0  0  0  0  0  0  0
  -88.9202   21.2375    4.3575 C   0  0  0  0  0  0  0  0  0  0  0  0
  -88.0276   20.1217    4.4716 C   0  0  0  0  0  0  0  0  0  0  0  0
  -86.9663   19.8464    3.5959 O   0  0  0  0  0  0  0  0  0  0  0  0
  -88.1667   19.2881    5.4318 O   0  0  0  0  0  0  0  0  0  0  0  0
  -86.3689   20.6014    3.2533 H   0  0  0  0  0  0  0  0  0  0  0  0
  -89.7756   24.3403   -1.7727 C   0  0  0  0  0  0  0  0  0  0  0  0
  -90.7561   25.2764   -2.3561 C   0  0  0  0  0  0  0  0  0  0  0  0
  -90.3785   26.6879   -2.4076 C   0  0  0  0  0  0  0  0  0  0  0  0
  -89.3876   27.0852   -3.3952 O   0  0  0  0  0  0  0  0  0  0  0  0
  -90.7735   27.6113   -1.7255 O   0  0  0  0  0  0  0  0  0  0  0  0
  -89.7134   27.6539   -4.1668 H   0  0  0  0  0  0  0  0  0  0  0  0
  -89.8512   27.4876    3.1959 C   0  0  0  0  0  0  0  0  0  0  0  0
  -90.6642   26.8940    4.2732 C   0  0  0  0  0  0  0  0  0  0  0  0
  -89.9279   26.4267    5.4438 C   0  0  0  0  0  0  0  0  0  0  0  0
  -89.2589   25.1757    5.3797 O   0  0  0  0  0  0  0  0  0  0  0  0
  -89.8338   27.0429    6.5031 O   0  0  0  0  0  0  0  0  0  0  0  0
  -88.4925   25.0425    6.0116 H   0  0  0  0  0  0  0  0  0  0  0  0
  -85.6529   28.4083    0.9754 C   0  0  0  0  0  0  0  0  0  0  0  0
  -86.8931   29.2442   -1.2892 C   0  0  0  0  0  0  0  0  0  0  0  0
  -87.3948   28.5067   -2.1477 O   0  0  0  0  0  0  0  0  0  0  0  0
  -86.2684   28.8264   -0.1484 N   0  0  0  0  0  0  0  0  0  0  0  0
  -86.4937   27.5547   -0.5186 H   0  0  0  0  0  0  0  0  0  0  0  0
  -87.0357   30.7122   -1.6711 C   0  0  0  0  0  0  0  0  0  0  0  0
  -88.2740   31.3083   -3.7150 C   0  0  0  0  0  0  0  0  0  0  0  0
  -87.1715   31.6042   -4.2624 O   0  0  0  0  0  0  0  0  0  0  0  0
  -88.3247   30.8387   -2.3560 N   0  0  0  0  0  0  0  0  0  0  0  0
  -89.2189   30.6132   -1.9204 H   0  0  0  0  0  0  0  0  0  0  0  0
  -89.5231   31.4570   -4.5095 C   0  0  0  0  0  0  0  0  0  0  0  0
  -89.2259   31.2475   -5.9018 N   0  0  0  0  0  0  0  0  0  0  0  0
  -88.9015   30.2543   -5.9801 H   0  0  0  0  0  0  0  0  0  0  0  0
  -88.5223   31.9354   -6.2009 H   0  0  0  0  0  0  0  0  0  0  0  0
  -91.5478   32.9577   -4.3595 C   0  0  0  0  0  0  0  0  0  0  0  0
  -90.0469   32.8394   -4.2685 C   0  0  0  0  0  0  0  0  0  0  0  0
  -89.4273   33.7682   -5.2924 C   0  0  0  0  0  0  0  0  0  0  0  0
  -87.1526   31.5229   -0.4193 C   0  0  0  0  0  0  0  0  0  0  0  0
  -86.9488   32.9844   -0.6592 C   0  0  0  0  0  0  0  0  0  0  0  0
  -85.7908   33.2968   -1.4763 C   0  0  0  0  0  0  0  0  0  0  0  0
  -85.7177   33.6145   -2.7985 O   0  0  0  0  0  0  0  0  0  0  0  0
  -84.6234   33.2648   -0.8792 O   0  0  0  0  0  0  0  0  0  0  0  0
  -86.5428   33.4617   -3.4118 H   0  0  0  0  0  0  0  0  0  0  0  0
  -85.1691   29.3598    2.0040 C   0  0  0  0  0  0  0  0  0  0  0  0
  -83.6987   29.5811    2.0288 C   0  0  0  0  0  0  0  0  0  0  0  0
  -83.3720   30.8506    1.3354 C   0  0  0  0  0  0  0  0  0  0  0  0
  -84.0488   32.0386    1.6653 O   0  0  0  0  0  0  0  0  0  0  0  0
  -82.5039   30.9740    0.4335 O   0  0  0  0  0  0  0  0  0  0  0  0
  -84.5140   32.2172    2.5257 H   0  0  0  0  0  0  0  0  0  0  0  0
 52 53  1  0  0  0
 53 54  1  0  0  0
 53 48  1  0  0  0
 48 49  1  0  0  0
 48 44  1  0  0  0
 44 45  2  0  0  0
 44 46  1  0  0  0
 46 43  1  0  0  0
 43 55  1  0  0  0
 55 56  1  0  0  0
 56 57  1  0  0  0
 57 58  1  0  0  0
 57 59  2  0  0  0
 43 39  1  0  0  0
 39 40  2  0  0  0
 39 41  1  0  0  0
 41 38  1  0  0  0
 38 61  1  0  0  0
 61 62  1  0  0  0
 62 63  1  0  0  0
 63 64  1  0  0  0
 63 65  2  0  0  0
 38  1  1  0  0  0
  1  2  2  0  0  0
  1  3  1  0  0  0
  3  5  1  0  0  0
  5 32  1  0  0  0
 32 33  1  0  0  0
 33 34  1  0  0  0
 34 35  1  0  0  0
 34 36  2  0  0  0
  5  6  1  0  0  0
  6  7  2  0  0  0
  6  8  1  0  0  0
  8 10  1  0  0  0
 10 26  1  0  0  0
 26 27  1  0  0  0
 27 28  1  0  0  0
 28 29  1  0  0  0
 28 30  2  0  0  0
 10 11  1  0  0  0
 11 12  2  0  0  0
 11 13  1  0  0  0
 13 15  1  0  0  0
 15 20  1  0  0  0
 20 21  1  0  0  0
 21 22  1  0  0  0
 22 23  1  0  0  0
 22 24  2  0  0  0
 15 16  1  0  0  0
 16 17  1  0  0  0
 16 18  2  0  0  0
 49 50  1  0  0  0
 49 51  1  0  0  0
 46 47  1  0  0  0
 58 60  1  0  0  0
 41 42  1  0  0  0
 64 66  1  0  0  0
  3  4  1  0  0  0
 35 37  1  0  0  0
  8  9  1  0  0  0
 29 31  1  0  0  0
 13 14  1  0  0  0
 23 25  1  0  0  0
 17 19  1  0  0  0
M  END
> <minimizedAffinity>
-8.58995

> <CNNscore>
0.0845646039

> <CNNaffinity>
6.4364862442

> <CNN_VS>
0.5442988873

> <CNNaffinity_variance>
0.1162909418

$$$$
[H]OC(=O)C([H])([H])C([H])([H])[C@@]([H])(C(=O)O[H])N([H])C(=O)[C@@]([H])(N([H])C(=O)[C@@]([H])(N([H])C(=O)[C@@]([H])(N([H])C(=O)[C@@]([H])(N([H])C(=O)[C@]([H])(N([H])[H])C([H])(C([H])([H])[H])C([H])([H])[H])C([H])([H])C([H])([H])C(=O)O[H])C([H])([H])C([H])([H])C(=O)O[H])C([H])([H])C([H])([H])C(=O)O[H])C([H])([H])C([H])([H])C(=O)O[H]


 66 65  0  0  0  0  0  0  0  0999 V2000
  -89.1567   31.2954   -0.9453 C   0  0  0  0  0  0  0  0  0  0  0  0
  -89.5872   32.1847   -0.1178 O   0  0  0  0  0  0  0  0  0  0  0  0
  -89.8334   30.1431   -1.2288 N   0  0  0  0  0  0  0  0  0  0  0  0
  -89.3236   29.5265   -1.9705 H   0  0  0  0  0  0  0  0  0  0  0  0
  -91.0993   29.5712   -0.7393 C   0  0  0  0  0  0  0  0  0  0  0  0
  -90.8310   28.3078   -0.1084 C   0  0  0  0  0  0  0  0  0  0  0  0
  -89.7163   27.6772   -0.5354 O   0  0  0  0  0  0  0  0  0  0  0  0
  -91.4580   27.5242    0.8892 N   0  0  0  0  0  0  0  0  0  0  0  0
  -92.3260   27.7705    1.3747 H   0  0  0  0  0  0  0  0  0  0  0  0
  -90.8424   26.2533    1.2506 C   0  0  0  0  0  0  0  0  0  0  0  0
  -91.3559   25.1044    0.4317 C   0  0  0  0  0  0  0  0  0  0  0  0
  -92.5323   25.1227    0.1113 O   0  0  0  0  0  0  0  0  0  0  0  0
  -90.4598   24.1122    0.0998 N   0  0  0  0  0  0  0  0  0  0  0  0
  -89.4520   24.1987    0.4548 H   0  0  0  0  0  0  0  0  0  0  0  0
  -90.5878   22.8842   -0.7062 C   0  0  0  0  0  0  0  0  0  0  0  0
  -89.8423   21.7652   -0.1749 C   0  0  0  0  0  0  0  0  0  0  0  0
  -88.5296   21.6118    0.0233 O   0  0  0  0  0  0  0  0  0  0  0  0
  -90.5686   20.7141    0.1803 O   0  0  0  0  0  0  0  0  0  0  0  0
  -87.9839   20.9312   -0.5307 H   0  0  0  0  0  0  0  0  0  0  0  0
  -90.6824   23.2092   -2.1106 C   0  0  0  0  0  0  0  0  0  0  0  0
  -91.8232   22.9904   -2.9817 C   0  0  0  0  0  0  0  0  0  0  0  0
  -92.9122   23.9093   -3.1386 C   0  0  0  0  0  0  0  0  0  0  0  0
  -92.8705   25.0845   -3.9040 O   0  0  0  0  0  0  0  0  0  0  0  0
  -94.0295   23.6804   -2.5593 O   0  0  0  0  0  0  0  0  0  0  0  0
  -92.4137   25.0910   -4.8180 H   0  0  0  0  0  0  0  0  0  0  0  0
  -90.7425   26.0151    2.7013 C   0  0  0  0  0  0  0  0  0  0  0  0
  -89.6574   26.6316    3.4889 C   0  0  0  0  0  0  0  0  0  0  0  0
  -90.0146   27.1829    4.7951 C   0  0  0  0  0  0  0  0  0  0  0  0
  -90.4582   28.5670    4.8444 O   0  0  0  0  0  0  0  0  0  0  0  0
  -89.9916   26.6470    5.8843 O   0  0  0  0  0  0  0  0  0  0  0  0
  -91.4342   28.7270    5.0609 H   0  0  0  0  0  0  0  0  0  0  0  0
  -92.1134   29.5889   -1.8501 C   0  0  0  0  0  0  0  0  0  0  0  0
  -91.6367   29.4287   -3.2360 C   0  0  0  0  0  0  0  0  0  0  0  0
  -91.3420   30.6642   -3.9556 C   0  0  0  0  0  0  0  0  0  0  0  0
  -90.8686   30.5840   -5.2920 O   0  0  0  0  0  0  0  0  0  0  0  0
  -91.4768   31.7939   -3.4906 O   0  0  0  0  0  0  0  0  0  0  0  0
  -91.0178   31.3883   -5.8711 H   0  0  0  0  0  0  0  0  0  0  0  0
  -87.8001   31.6213   -1.6018 C   0  0  0  0  0  0  0  0  0  0  0  0
  -88.0094   32.2606   -4.2310 C   0  0  0  0  0  0  0  0  0  0  0  0
  -87.8174   31.4848   -5.1765 O   0  0  0  0  0  0  0  0  0  0  0  0
  -87.9049   31.9417   -2.9068 N   0  0  0  0  0  0  0  0  0  0  0  0
  -87.5603   30.6918   -3.2589 H   0  0  0  0  0  0  0  0  0  0  0  0
  -88.3637   33.6572   -4.7262 C   0  0  0  0  0  0  0  0  0  0  0  0
  -90.0208   34.5486   -6.3155 C   0  0  0  0  0  0  0  0  0  0  0  0
  -89.1910   35.4515   -6.6301 O   0  0  0  0  0  0  0  0  0  0  0  0
  -89.6987   33.5591   -5.3220 N   0  0  0  0  0  0  0  0  0  0  0  0
  -90.3780   32.8421   -5.0677 H   0  0  0  0  0  0  0  0  0  0  0  0
  -91.3431   34.5313   -6.9973 C   0  0  0  0  0  0  0  0  0  0  0  0
  -91.8506   33.1848   -7.0111 N   0  0  0  0  0  0  0  0  0  0  0  0
  -91.9937   32.9213   -6.0072 H   0  0  0  0  0  0  0  0  0  0  0  0
  -91.1808   32.5798   -7.5043 H   0  0  0  0  0  0  0  0  0  0  0  0
  -91.8942   36.3168   -8.6950 C   0  0  0  0  0  0  0  0  0  0  0  0
  -91.1382   35.0483   -8.3880 C   0  0  0  0  0  0  0  0  0  0  0  0
  -91.5789   33.9765   -9.3638 C   0  0  0  0  0  0  0  0  0  0  0  0
  -88.5054   34.5623   -3.5436 C   0  0  0  0  0  0  0  0  0  0  0  0
  -87.3158   35.4468   -3.3502 C   0  0  0  0  0  0  0  0  0  0  0  0
  -87.2766   36.5931   -4.2393 C   0  0  0  0  0  0  0  0  0  0  0  0
  -86.7459   36.7094   -5.4880 O   0  0  0  0  0  0  0  0  0  0  0  0
  -87.8173   37.7020   -3.7938 O   0  0  0  0  0  0  0  0  0  0  0  0
  -86.1122   35.9692   -5.8497 H   0  0  0  0  0  0  0  0  0  0  0  0
  -87.1367   32.5184   -0.6257 C   0  0  0  0  0  0  0  0  0  0  0  0
  -85.8144   33.0539   -1.0458 C   0  0  0  0  0  0  0  0  0  0  0  0
  -84.7449   32.4598   -0.2076 C   0  0  0  0  0  0  0  0  0  0  0  0
  -83.3912   32.7132   -0.4929 O   0  0  0  0  0  0  0  0  0  0  0  0
  -84.9414   31.7119    0.7844 O   0  0  0  0  0  0  0  0  0  0  0  0
  -83.0456   33.4934   -1.0032 H   0  0  0  0  0  0  0  0  0  0  0  0
 52 53  1  0  0  0
 53 54  1  0  0  0
 53 48  1  0  0  0
 48 49  1  0  0  0
 48 44  1  0  0  0
 44 45  2  0  0  0
 44 46  1  0  0  0
 46 43  1  0  0  0
 43 55  1  0  0  0
 55 56  1  0  0  0
 56 57  1  0  0  0
 57 58  1  0  0  0
 57 59  2  0  0  0
 43 39  1  0  0  0
 39 40  2  0  0  0
 39 41  1  0  0  0
 41 38  1  0  0  0
 38 61  1  0  0  0
 61 62  1  0  0  0
 62 63  1  0  0  0
 63 64  1  0  0  0
 63 65  2  0  0  0
 38  1  1  0  0  0
  1  2  2  0  0  0
  1  3  1  0  0  0
  3  5  1  0  0  0
  5 32  1  0  0  0
 32 33  1  0  0  0
 33 34  1  0  0  0
 34 35  1  0  0  0
 34 36  2  0  0  0
  5  6  1  0  0  0
  6  7  2  0  0  0
  6  8  1  0  0  0
  8 10  1  0  0  0
 10 26  1  0  0  0
 26 27  1  0  0  0
 27 28  1  0  0  0
 28 29  1  0  0  0
 28 30  2  0  0  0
 10 11  1  0  0  0
 11 12  2  0  0  0
 11 13  1  0  0  0
 13 15  1  0  0  0
 15 20  1  0  0  0
 20 21  1  0  0  0
 21 22  1  0  0  0
 22 23  1  0  0  0
 22 24  2  0  0  0
 15 16  1  0  0  0
 16 17  1  0  0  0
 16 18  2  0  0  0
 49 50  1  0  0  0
 49 51  1  0  0  0
 46 47  1  0  0  0
 58 60  1  0  0  0
 41 42  1  0  0  0
 64 66  1  0  0  0
  3  4  1  0  0  0
 35 37  1  0  0  0
  8  9  1  0  0  0
 29 31  1  0  0  0
 13 14  1  0  0  0
 23 25  1  0  0  0
 17 19  1  0  0  0
M  END
> <minimizedAffinity>
-7.05402

> <CNNscore>
0.0523606353

> <CNNaffinity>
5.8085103035

> <CNN_VS>
0.3041372895

> <CNNaffinity_variance>
0.2348370254

$$$$
[H]OC(=O)C([H])([H])C([H])([H])[C@@]([H])(C(=O)O[H])N([H])C(=O)[C@@]([H])(N([H])C(=O)[C@@]([H])(N([H])C(=O)[C@@]([H])(N([H])C(=O)[C@@]([H])(N([H])C(=O)[C@]([H])(N([H])[H])C([H])(C([H])([H])[H])C([H])([H])[H])C([H])([H])C([H])([H])C(=O)O[H])C([H])([H])C([H])([H])C(=O)O[H])C([H])([H])C([H])([H])C(=O)O[H])C([H])([H])C([H])([H])C(=O)O[H]


 66 65  0  0  0  0  0  0  0  0999 V2000
  -90.6286   29.4916   -2.4131 C   0  0  0  0  0  0  0  0  0  0  0  0
  -91.0977   30.5783   -1.9032 O   0  0  0  0  0  0  0  0  0  0  0  0
  -91.4176   28.4930   -2.9094 N   0  0  0  0  0  0  0  0  0  0  0  0
  -90.8397   27.6640   -3.3206 H   0  0  0  0  0  0  0  0  0  0  0  0
  -92.8765   28.3118   -2.9996 C   0  0  0  0  0  0  0  0  0  0  0  0
  -93.1817   26.9098   -2.9142 C   0  0  0  0  0  0  0  0  0  0  0  0
  -94.1418   26.5835   -2.0230 O   0  0  0  0  0  0  0  0  0  0  0  0
  -92.7186   25.7350   -3.5530 N   0  0  0  0  0  0  0  0  0  0  0  0
  -91.9856   25.7015   -4.2681 H   0  0  0  0  0  0  0  0  0  0  0  0
  -93.3079   24.4617   -3.1578 C   0  0  0  0  0  0  0  0  0  0  0  0
  -92.3958   23.6426   -2.2911 C   0  0  0  0  0  0  0  0  0  0  0  0
  -91.9138   22.6333   -2.7768 O   0  0  0  0  0  0  0  0  0  0  0  0
  -92.1679   24.0914   -1.0088 N   0  0  0  0  0  0  0  0  0  0  0  0
  -92.6632   24.9867   -0.6887 H   0  0  0  0  0  0  0  0  0  0  0  0
  -91.3208   23.5859    0.0869 C   0  0  0  0  0  0  0  0  0  0  0  0
  -92.0383   22.7722    1.0425 C   0  0  0  0  0  0  0  0  0  0  0  0
  -91.6694   21.6610    1.6870 O   0  0  0  0  0  0  0  0  0  0  0  0
  -93.2623   23.1873    1.3387 O   0  0  0  0  0  0  0  0  0  0  0  0
  -92.1247   20.7548    1.4881 H   0  0  0  0  0  0  0  0  0  0  0  0
  -90.3137   24.5604    0.4378 C   0  0  0  0  0  0  0  0  0  0  0  0
  -90.4411   25.6379    1.4027 C   0  0  0  0  0  0  0  0  0  0  0  0
  -90.9633   26.9386    1.1021 C   0  0  0  0  0  0  0  0  0  0  0  0
  -91.9149   27.2147    0.1086 O   0  0  0  0  0  0  0  0  0  0  0  0
  -90.5648   27.9562    1.7671 O   0  0  0  0  0  0  0  0  0  0  0  0
  -92.7151   26.5941   -0.0283 H   0  0  0  0  0  0  0  0  0  0  0  0
  -93.9805   23.7362   -4.2499 C   0  0  0  0  0  0  0  0  0  0  0  0
  -95.3733   23.2735   -4.0958 C   0  0  0  0  0  0  0  0  0  0  0  0
  -96.1646   23.8895   -3.0318 C   0  0  0  0  0  0  0  0  0  0  0  0
  -96.6327   25.2504   -3.2413 O   0  0  0  0  0  0  0  0  0  0  0  0
  -96.4981   23.4267   -1.9601 O   0  0  0  0  0  0  0  0  0  0  0  0
  -97.6280   25.3757   -3.3778 H   0  0  0  0  0  0  0  0  0  0  0  0
  -93.3959   29.0618   -4.1955 C   0  0  0  0  0  0  0  0  0  0  0  0
  -92.6195   29.0075   -5.4477 C   0  0  0  0  0  0  0  0  0  0  0  0
  -92.9150   27.8848   -6.3328 C   0  0  0  0  0  0  0  0  0  0  0  0
  -91.9822   27.5477   -7.3489 O   0  0  0  0  0  0  0  0  0  0  0  0
  -93.9260   27.1890   -6.2666 O   0  0  0  0  0  0  0  0  0  0  0  0
  -92.0078   26.6051   -7.6885 H   0  0  0  0  0  0  0  0  0  0  0  0
  -89.0900   29.3887   -2.4208 C   0  0  0  0  0  0  0  0  0  0  0  0
  -87.8911   31.3678   -3.8389 C   0  0  0  0  0  0  0  0  0  0  0  0
  -87.3330   31.2293   -4.9353 O   0  0  0  0  0  0  0  0  0  0  0  0
  -88.4954   30.3737   -3.1229 N   0  0  0  0  0  0  0  0  0  0  0  0
  -88.1511   29.5026   -4.0861 H   0  0  0  0  0  0  0  0  0  0  0  0
  -87.8055   32.8096   -3.3543 C   0  0  0  0  0  0  0  0  0  0  0  0
  -86.5599   32.8586   -1.2300 C   0  0  0  0  0  0  0  0  0  0  0  0
  -87.6560   32.7000   -0.6166 O   0  0  0  0  0  0  0  0  0  0  0  0
  -86.5187   32.9395   -2.6658 N   0  0  0  0  0  0  0  0  0  0  0  0
  -85.6319   33.0783   -3.1502 H   0  0  0  0  0  0  0  0  0  0  0  0
  -85.3085   32.9604   -0.4318 C   0  0  0  0  0  0  0  0  0  0  0  0
  -84.2909   33.5957   -1.2266 N   0  0  0  0  0  0  0  0  0  0  0  0
  -84.6395   34.5650   -1.4184 H   0  0  0  0  0  0  0  0  0  0  0  0
  -84.1340   33.0387   -2.0768 H   0  0  0  0  0  0  0  0  0  0  0  0
  -85.4464   31.1159    1.2865 C   0  0  0  0  0  0  0  0  0  0  0  0
  -84.9069   31.5697   -0.0468 C   0  0  0  0  0  0  0  0  0  0  0  0
  -83.3939   31.5068   -0.0011 C   0  0  0  0  0  0  0  0  0  0  0  0
  -87.7286   33.7110   -4.5457 C   0  0  0  0  0  0  0  0  0  0  0  0
  -88.9297   34.5911   -4.6797 C   0  0  0  0  0  0  0  0  0  0  0  0
  -88.8837   35.4899   -5.8182 C   0  0  0  0  0  0  0  0  0  0  0  0
  -89.8989   36.1163   -6.4752 O   0  0  0  0  0  0  0  0  0  0  0  0
  -87.6984   35.7469   -6.3175 O   0  0  0  0  0  0  0  0  0  0  0  0
  -90.8813   35.8221   -6.3061 H   0  0  0  0  0  0  0  0  0  0  0  0
  -88.7427   29.1157   -1.0058 C   0  0  0  0  0  0  0  0  0  0  0  0
  -87.3566   28.6312   -0.7699 C   0  0  0  0  0  0  0  0  0  0  0  0
  -87.3534   27.6431    0.3359 C   0  0  0  0  0  0  0  0  0  0  0  0
  -87.5137   28.0629    1.6686 O   0  0  0  0  0  0  0  0  0  0  0  0
  -87.2130   26.4016    0.1897 O   0  0  0  0  0  0  0  0  0  0  0  0
  -87.9401   28.9132    1.9580 H   0  0  0  0  0  0  0  0  0  0  0  0
 52 53  1  0  0  0
 53 54  1  0  0  0
 53 48  1  0  0  0
 48 49  1  0  0  0
 48 44  1  0  0  0
 44 45  2  0  0  0
 44 46  1  0  0  0
 46 43  1  0  0  0
 43 55  1  0  0  0
 55 56  1  0  0  0
 56 57  1  0  0  0
 57 58  1  0  0  0
 57 59  2  0  0  0
 43 39  1  0  0  0
 39 40  2  0  0  0
 39 41  1  0  0  0
 41 38  1  0  0  0
 38 61  1  0  0  0
 61 62  1  0  0  0
 62 63  1  0  0  0
 63 64  1  0  0  0
 63 65  2  0  0  0
 38  1  1  0  0  0
  1  2  2  0  0  0
  1  3  1  0  0  0
  3  5  1  0  0  0
  5 32  1  0  0  0
 32 33  1  0  0  0
 33 34  1  0  0  0
 34 35  1  0  0  0
 34 36  2  0  0  0
  5  6  1  0  0  0
  6  7  2  0  0  0
  6  8  1  0  0  0
  8 10  1  0  0  0
 10 26  1  0  0  0
 26 27  1  0  0  0
 27 28  1  0  0  0
 28 29  1  0  0  0
 28 30  2  0  0  0
 10 11  1  0  0  0
 11 12  2  0  0  0
 11 13  1  0  0  0
 13 15  1  0  0  0
 15 20  1  0  0  0
 20 21  1  0  0  0
 21 22  1  0  0  0
 22 23  1  0  0  0
 22 24  2  0  0  0
 15 16  1  0  0  0
 16 17  1  0  0  0
 16 18  2  0  0  0
 49 50  1  0  0  0
 49 51  1  0  0  0
 46 47  1  0  0  0
 58 60  1  0  0  0
 41 42  1  0  0  0
 64 66  1  0  0  0
  3  4  1  0  0  0
 35 37  1  0  0  0
  8  9  1  0  0  0
 29 31  1  0  0  0
 13 14  1  0  0  0
 23 25  1  0  0  0
 17 19  1  0  0  0
M  END
> <minimizedAffinity>
-6.51389

> <CNNscore>
0.0224285517

> <CNNaffinity>
5.6987829208

> <CNN_VS>
0.1278154403

> <CNNaffinity_variance>
0.4822159410

$$$$
[H]OC(=O)C([H])([H])C([H])([H])[C@@]([H])(C(=O)O[H])N([H])C(=O)[C@@]([H])(N([H])C(=O)[C@@]([H])(N([H])C(=O)[C@@]([H])(N([H])C(=O)[C@@]([H])(N([H])C(=O)[C@]([H])(N([H])[H])C([H])(C([H])([H])[H])C([H])([H])[H])C([H])([H])C([H])([H])C(=O)O[H])C([H])([H])C([H])([H])C(=O)O[H])C([H])([H])C([H])([H])C(=O)O[H])C([H])([H])C([H])([H])C(=O)O[H]


 66 65  0  0  0  0  0  0  0  0999 V2000
  -89.2069   31.2028   -1.1365 C   0  0  0  0  0  0  0  0  0  0  0  0
  -89.6299   31.8893   -0.1311 O   0  0  0  0  0  0  0  0  0  0  0  0
  -89.6754   29.9577   -1.4463 N   0  0  0  0  0  0  0  0  0  0  0  0
  -89.2148   29.5456   -2.3454 H   0  0  0  0  0  0  0  0  0  0  0  0
  -90.6665   29.0683   -0.8170 C   0  0  0  0  0  0  0  0  0  0  0  0
  -89.9810   27.9758   -0.1823 C   0  0  0  0  0  0  0  0  0  0  0  0
  -89.2928   27.1669   -1.0157 O   0  0  0  0  0  0  0  0  0  0  0  0
  -89.8322   27.5130    1.1466 N   0  0  0  0  0  0  0  0  0  0  0  0
  -90.2587   27.9432    1.9730 H   0  0  0  0  0  0  0  0  0  0  0  0
  -89.0277   26.3184    1.3707 C   0  0  0  0  0  0  0  0  0  0  0  0
  -89.8485   25.1357    1.7972 C   0  0  0  0  0  0  0  0  0  0  0  0
  -90.4304   25.2101    2.8661 O   0  0  0  0  0  0  0  0  0  0  0  0
  -89.8861   24.0512    0.9485 N   0  0  0  0  0  0  0  0  0  0  0  0
  -89.3176   24.0969    0.0408 H   0  0  0  0  0  0  0  0  0  0  0  0
  -90.5998   22.7626    1.0111 C   0  0  0  0  0  0  0  0  0  0  0  0
  -89.8882   21.6775    0.3736 C   0  0  0  0  0  0  0  0  0  0  0  0
  -88.5982   21.5597    0.0447 O   0  0  0  0  0  0  0  0  0  0  0  0
  -90.6238   20.6191    0.0620 O   0  0  0  0  0  0  0  0  0  0  0  0
  -88.3022   21.5298   -0.9450 H   0  0  0  0  0  0  0  0  0  0  0  0
  -92.0263   22.9698    0.9174 C   0  0  0  0  0  0  0  0  0  0  0  0
  -92.7374   23.6825   -0.1289 C   0  0  0  0  0  0  0  0  0  0  0  0
  -93.0035   23.1536   -1.4343 C   0  0  0  0  0  0  0  0  0  0  0  0
  -92.4841   21.9511   -1.9374 O   0  0  0  0  0  0  0  0  0  0  0  0
  -93.7714   23.7886   -2.2365 O   0  0  0  0  0  0  0  0  0  0  0  0
  -92.4344   21.1205   -1.3443 H   0  0  0  0  0  0  0  0  0  0  0  0
  -87.7900   26.5516    2.1356 C   0  0  0  0  0  0  0  0  0  0  0  0
  -86.4826   26.5897    1.4519 C   0  0  0  0  0  0  0  0  0  0  0  0
  -85.4251   27.3775    2.0832 C   0  0  0  0  0  0  0  0  0  0  0  0
  -85.7131   28.7697    2.3900 O   0  0  0  0  0  0  0  0  0  0  0  0
  -84.3019   27.0394    2.3964 O   0  0  0  0  0  0  0  0  0  0  0  0
  -85.7989   29.0139    3.3688 H   0  0  0  0  0  0  0  0  0  0  0  0
  -91.7336   28.7267   -1.8206 C   0  0  0  0  0  0  0  0  0  0  0  0
  -91.3806   28.7459   -3.2520 C   0  0  0  0  0  0  0  0  0  0  0  0
  -91.6256   30.0031   -3.9521 C   0  0  0  0  0  0  0  0  0  0  0  0
  -91.4462   30.0512   -5.3600 O   0  0  0  0  0  0  0  0  0  0  0  0
  -91.9865   31.0462   -3.4115 O   0  0  0  0  0  0  0  0  0  0  0  0
  -91.9468   30.7657   -5.8532 H   0  0  0  0  0  0  0  0  0  0  0  0
  -88.1130   31.8901   -1.9784 C   0  0  0  0  0  0  0  0  0  0  0  0
  -88.8363   32.2719   -4.5661 C   0  0  0  0  0  0  0  0  0  0  0  0
  -88.5987   31.4954   -5.5006 O   0  0  0  0  0  0  0  0  0  0  0  0
  -88.4736   32.0824   -3.2628 N   0  0  0  0  0  0  0  0  0  0  0  0
  -87.8924   30.9241   -3.6172 H   0  0  0  0  0  0  0  0  0  0  0  0
  -89.5810   33.5089   -5.0522 C   0  0  0  0  0  0  0  0  0  0  0  0
  -91.6307   33.9375   -6.3489 C   0  0  0  0  0  0  0  0  0  0  0  0
  -91.1348   35.0439   -6.7131 O   0  0  0  0  0  0  0  0  0  0  0  0
  -90.9095   33.0547   -5.4711 N   0  0  0  0  0  0  0  0  0  0  0  0
  -91.3221   32.1703   -5.1748 H   0  0  0  0  0  0  0  0  0  0  0  0
  -92.9818   33.5665   -6.8494 C   0  0  0  0  0  0  0  0  0  0  0  0
  -93.0565   32.1367   -6.9937 N   0  0  0  0  0  0  0  0  0  0  0  0
  -92.9430   31.7441   -6.0289 H   0  0  0  0  0  0  0  0  0  0  0  0
  -92.3290   31.8283   -7.6521 H   0  0  0  0  0  0  0  0  0  0  0  0
  -94.3835   35.1611   -8.2154 C   0  0  0  0  0  0  0  0  0  0  0  0
  -93.1784   34.2556   -8.1646 C   0  0  0  0  0  0  0  0  0  0  0  0
  -93.3251   33.1975   -9.2390 C   0  0  0  0  0  0  0  0  0  0  0  0
  -89.8051   34.4207   -3.8877 C   0  0  0  0  0  0  0  0  0  0  0  0
  -88.7997   35.5251   -3.8198 C   0  0  0  0  0  0  0  0  0  0  0  0
  -88.3902   36.0364   -5.1147 C   0  0  0  0  0  0  0  0  0  0  0  0
  -87.4779   35.5433   -5.9973 O   0  0  0  0  0  0  0  0  0  0  0  0
  -88.9611   37.1470   -5.5161 O   0  0  0  0  0  0  0  0  0  0  0  0
  -86.8186   34.7987   -5.6952 H   0  0  0  0  0  0  0  0  0  0  0  0
  -87.6488   33.0057   -1.1197 C   0  0  0  0  0  0  0  0  0  0  0  0
  -86.4372   33.7214   -1.6010 C   0  0  0  0  0  0  0  0  0  0  0  0
  -85.2504   33.2654   -0.8377 C   0  0  0  0  0  0  0  0  0  0  0  0
  -83.9556   33.6352   -1.2437 O   0  0  0  0  0  0  0  0  0  0  0  0
  -85.2918   32.5418    0.1904 O   0  0  0  0  0  0  0  0  0  0  0  0
  -83.7307   34.4240   -1.8055 H   0  0  0  0  0  0  0  0  0  0  0  0
 52 53  1  0  0  0
 53 54  1  0  0  0
 53 48  1  0  0  0
 48 49  1  0  0  0
 48 44  1  0  0  0
 44 45  2  0  0  0
 44 46  1  0  0  0
 46 43  1  0  0  0
 43 55  1  0  0  0
 55 56  1  0  0  0
 56 57  1  0  0  0
 57 58  1  0  0  0
 57 59  2  0  0  0
 43 39  1  0  0  0
 39 40  2  0  0  0
 39 41  1  0  0  0
 41 38  1  0  0  0
 38 61  1  0  0  0
 61 62  1  0  0  0
 62 63  1  0  0  0
 63 64  1  0  0  0
 63 65  2  0  0  0
 38  1  1  0  0  0
  1  2  2  0  0  0
  1  3  1  0  0  0
  3  5  1  0  0  0
  5 32  1  0  0  0
 32 33  1  0  0  0
 33 34  1  0  0  0
 34 35  1  0  0  0
 34 36  2  0  0  0
  5  6  1  0  0  0
  6  7  2  0  0  0
  6  8  1  0  0  0
  8 10  1  0  0  0
 10 26  1  0  0  0
 26 27  1  0  0  0
 27 28  1  0  0  0
 28 29  1  0  0  0
 28 30  2  0  0  0
 10 11  1  0  0  0
 11 12  2  0  0  0
 11 13  1  0  0  0
 13 15  1  0  0  0
 15 20  1  0  0  0
 20 21  1  0  0  0
 21 22  1  0  0  0
 22 23  1  0  0  0
 22 24  2  0  0  0
 15 16  1  0  0  0
 16 17  1  0  0  0
 16 18  2  0  0  0
 49 50  1  0  0  0
 49 51  1  0  0  0
 46 47  1  0  0  0
 58 60  1  0  0  0
 41 42  1  0  0  0
 64 66  1  0  0  0
  3  4  1  0  0  0
 35 37  1  0  0  0
  8  9  1  0  0  0
 29 31  1  0  0  0
 13 14  1  0  0  0
 23 25  1  0  0  0
 17 19  1  0  0  0
M  END
> <minimizedAffinity>
-7.11413

> <CNNscore>
0.0208219998

> <CNNaffinity>
5.7409787178

> <CNN_VS>
0.1195386574

> <CNNaffinity_variance>
0.3126738966

$$$$
[H]OC(=O)C([H])([H])C([H])([H])[C@@]([H])(C(=O)O[H])N([H])C(=O)[C@@]([H])(N([H])C(=O)[C@@]([H])(N([H])C(=O)[C@@]([H])(N([H])C(=O)[C@@]([H])(N([H])C(=O)[C@]([H])(N([H])[H])C([H])(C([H])([H])[H])C([H])([H])[H])C([H])([H])C([H])([H])C(=O)O[H])C([H])([H])C([H])([H])C(=O)O[H])C([H])([H])C([H])([H])C(=O)O[H])C([H])([H])C([H])([H])C(=O)O[H]


 66 65  0  0  0  0  0  0  0  0999 V2000
  -88.3444   28.9272   -1.4936 C   0  0  0  0  0  0  0  0  0  0  0  0
  -88.1676   27.8672   -2.2050 O   0  0  0  0  0  0  0  0  0  0  0  0
  -87.7144   29.1454   -0.3013 N   0  0  0  0  0  0  0  0  0  0  0  0
  -87.9720   30.1086    0.1416 H   0  0  0  0  0  0  0  0  0  0  0  0
  -86.7674   28.3500    0.4987 C   0  0  0  0  0  0  0  0  0  0  0  0
  -87.4775   27.2731    1.1330 C   0  0  0  0  0  0  0  0  0  0  0  0
  -86.9784   26.0403    0.9018 O   0  0  0  0  0  0  0  0  0  0  0  0
  -88.6095   27.1685    1.9757 N   0  0  0  0  0  0  0  0  0  0  0  0
  -89.1795   27.9559    2.2994 H   0  0  0  0  0  0  0  0  0  0  0  0
  -89.0211   25.8390    2.4092 C   0  0  0  0  0  0  0  0  0  0  0  0
  -89.9138   25.1535    1.4155 C   0  0  0  0  0  0  0  0  0  0  0  0
  -90.9931   25.6691    1.1786 O   0  0  0  0  0  0  0  0  0  0  0  0
  -89.4481   23.9911    0.8415 N   0  0  0  0  0  0  0  0  0  0  0  0
  -88.4865   23.6256    1.1431 H   0  0  0  0  0  0  0  0  0  0  0  0
  -90.0129   23.0891   -0.1790 C   0  0  0  0  0  0  0  0  0  0  0  0
  -89.6077   21.7106   -0.0184 C   0  0  0  0  0  0  0  0  0  0  0  0
  -88.3914   21.1729    0.1145 O   0  0  0  0  0  0  0  0  0  0  0  0
  -90.5950   20.8258    0.0057 O   0  0  0  0  0  0  0  0  0  0  0  0
  -87.9929   20.5699   -0.6241 H   0  0  0  0  0  0  0  0  0  0  0  0
  -90.1166   23.7666   -1.4506 C   0  0  0  0  0  0  0  0  0  0  0  0
  -91.2684   23.7918   -2.3344 C   0  0  0  0  0  0  0  0  0  0  0  0
  -92.5298   23.1775   -2.0408 C   0  0  0  0  0  0  0  0  0  0  0  0
  -92.7385   21.7980   -1.8911 O   0  0  0  0  0  0  0  0  0  0  0  0
  -93.5734   23.9019   -1.8902 O   0  0  0  0  0  0  0  0  0  0  0  0
  -92.0645   21.2251   -1.3797 H   0  0  0  0  0  0  0  0  0  0  0  0
  -89.4479   25.7619    3.8175 C   0  0  0  0  0  0  0  0  0  0  0  0
  -90.6881   26.4267    4.2621 C   0  0  0  0  0  0  0  0  0  0  0  0
  -90.7571   27.8787    4.1054 C   0  0  0  0  0  0  0  0  0  0  0  0
  -90.0238   28.6954    5.0596 O   0  0  0  0  0  0  0  0  0  0  0  0
  -91.3577   28.5315    3.2766 O   0  0  0  0  0  0  0  0  0  0  0  0
  -89.2138   29.1916    4.7094 H   0  0  0  0  0  0  0  0  0  0  0  0
  -85.9710   29.2699    1.3829 C   0  0  0  0  0  0  0  0  0  0  0  0
  -85.4261   28.7322    2.6429 C   0  0  0  0  0  0  0  0  0  0  0  0
  -84.0975   28.1332    2.5586 C   0  0  0  0  0  0  0  0  0  0  0  0
  -82.9965   28.9533    2.1958 O   0  0  0  0  0  0  0  0  0  0  0  0
  -83.8472   26.9513    2.7849 O   0  0  0  0  0  0  0  0  0  0  0  0
  -82.0892   28.6435    2.4880 H   0  0  0  0  0  0  0  0  0  0  0  0
  -89.3364   29.9489   -2.0852 C   0  0  0  0  0  0  0  0  0  0  0  0
  -88.1352   32.2184   -2.9634 C   0  0  0  0  0  0  0  0  0  0  0  0
  -87.5069   32.3347   -4.0238 O   0  0  0  0  0  0  0  0  0  0  0  0
  -88.7409   31.0776   -2.5188 N   0  0  0  0  0  0  0  0  0  0  0  0
  -88.3042   30.4442   -3.6203 H   0  0  0  0  0  0  0  0  0  0  0  0
  -88.1375   33.5235   -2.1773 C   0  0  0  0  0  0  0  0  0  0  0  0
  -86.2058   33.0520   -0.7237 C   0  0  0  0  0  0  0  0  0  0  0  0
  -86.9209   32.2202   -0.0916 O   0  0  0  0  0  0  0  0  0  0  0  0
  -86.7413   33.8002   -1.8299 N   0  0  0  0  0  0  0  0  0  0  0  0
  -86.1603   34.4760   -2.3259 H   0  0  0  0  0  0  0  0  0  0  0  0
  -84.7931   33.2417   -0.2973 C   0  0  0  0  0  0  0  0  0  0  0  0
  -83.9776   33.4861   -1.4574 N   0  0  0  0  0  0  0  0  0  0  0  0
  -84.3223   34.3870   -1.8665 H   0  0  0  0  0  0  0  0  0  0  0  0
  -84.0583   32.6853   -2.0978 H   0  0  0  0  0  0  0  0  0  0  0  0
  -84.1321   32.1717    1.8918 C   0  0  0  0  0  0  0  0  0  0  0  0
  -84.3668   31.9936    0.4126 C   0  0  0  0  0  0  0  0  0  0  0  0
  -83.0834   31.4995   -0.2229 C   0  0  0  0  0  0  0  0  0  0  0  0
  -88.5626   34.6305   -3.0893 C   0  0  0  0  0  0  0  0  0  0  0  0
  -87.4374   35.5494   -3.4422 C   0  0  0  0  0  0  0  0  0  0  0  0
  -87.8512   36.9075   -3.7429 C   0  0  0  0  0  0  0  0  0  0  0  0
  -88.2016   37.9183   -2.9002 O   0  0  0  0  0  0  0  0  0  0  0  0
  -87.9173   37.2353   -5.0112 O   0  0  0  0  0  0  0  0  0  0  0  0
  -88.3910   37.7125   -1.8992 H   0  0  0  0  0  0  0  0  0  0  0  0
  -90.2063   29.1338   -2.9663 C   0  0  0  0  0  0  0  0  0  0  0  0
  -91.4283   28.5810   -2.3238 C   0  0  0  0  0  0  0  0  0  0  0  0
  -91.9028   27.3997   -3.0844 C   0  0  0  0  0  0  0  0  0  0  0  0
  -93.1195   26.7779   -2.7509 O   0  0  0  0  0  0  0  0  0  0  0  0
  -91.2905   26.8723   -4.0483 O   0  0  0  0  0  0  0  0  0  0  0  0
  -93.8717   27.2072   -2.2627 H   0  0  0  0  0  0  0  0  0  0  0  0
 52 53  1  0  0  0
 53 54  1  0  0  0
 53 48  1  0  0  0
 48 49  1  0  0  0
 48 44  1  0  0  0
 44 45  2  0  0  0
 44 46  1  0  0  0
 46 43  1  0  0  0
 43 55  1  0  0  0
 55 56  1  0  0  0
 56 57  1  0  0  0
 57 58  1  0  0  0
 57 59  2  0  0  0
 43 39  1  0  0  0
 39 40  2  0  0  0
 39 41  1  0  0  0
 41 38  1  0  0  0
 38 61  1  0  0  0
 61 62  1  0  0  0
 62 63  1  0  0  0
 63 64  1  0  0  0
 63 65  2  0  0  0
 38  1  1  0  0  0
  1  2  2  0  0  0
  1  3  1  0  0  0
  3  5  1  0  0  0
  5 32  1  0  0  0
 32 33  1  0  0  0
 33 34  1  0  0  0
 34 35  1  0  0  0
 34 36  2  0  0  0
  5  6  1  0  0  0
  6  7  2  0  0  0
  6  8  1  0  0  0
  8 10  1  0  0  0
 10 26  1  0  0  0
 26 27  1  0  0  0
 27 28  1  0  0  0
 28 29  1  0  0  0
 28 30  2  0  0  0
 10 11  1  0  0  0
 11 12  2  0  0  0
 11 13  1  0  0  0
 13 15  1  0  0  0
 15 20  1  0  0  0
 20 21  1  0  0  0
 21 22  1  0  0  0
 22 23  1  0  0  0
 22 24  2  0  0  0
 15 16  1  0  0  0
 16 17  1  0  0  0
 16 18  2  0  0  0
 49 50  1  0  0  0
 49 51  1  0  0  0
 46 47  1  0  0  0
 58 60  1  0  0  0
 41 42  1  0  0  0
 64 66  1  0  0  0
  3  4  1  0  0  0
 35 37  1  0  0  0
  8  9  1  0  0  0
 29 31  1  0  0  0
 13 14  1  0  0  0
 23 25  1  0  0  0
 17 19  1  0  0  0
M  END
> <minimizedAffinity>
-8.10443

> <CNNscore>
0.0171937142

> <CNNaffinity>
6.2650365829

> <CNN_VS>
0.1077192500

> <CNNaffinity_variance>
0.8796445131

$$$$
[H]OC(=O)C([H])([H])C([H])([H])[C@@]([H])(C(=O)O[H])N([H])C(=O)[C@@]([H])(N([H])C(=O)[C@@]([H])(N([H])C(=O)[C@@]([H])(N([H])C(=O)[C@@]([H])(N([H])C(=O)[C@]([H])(N([H])[H])C([H])(C([H])([H])[H])C([H])([H])[H])C([H])([H])C([H])([H])C(=O)O[H])C([H])([H])C([H])([H])C(=O)O[H])C([H])([H])C([H])([H])C(=O)O[H])C([H])([H])C([H])([H])C(=O)O[H]


 66 65  0  0  0  0  0  0  0  0999 V2000
  -89.4269   28.9353   -1.0403 C   0  0  0  0  0  0  0  0  0  0  0  0
  -89.7317   29.6086    0.0154 O   0  0  0  0  0  0  0  0  0  0  0  0
  -90.2988   28.0960   -1.6737 N   0  0  0  0  0  0  0  0  0  0  0  0
  -89.8680   27.6332   -2.5629 H   0  0  0  0  0  0  0  0  0  0  0  0
  -91.6891   27.6936   -1.4004 C   0  0  0  0  0  0  0  0  0  0  0  0
  -91.7275   26.2789   -1.1485 C   0  0  0  0  0  0  0  0  0  0  0  0
  -90.6392   25.5923   -1.5569 O   0  0  0  0  0  0  0  0  0  0  0  0
  -92.6488   25.3840   -0.5545 N   0  0  0  0  0  0  0  0  0  0  0  0
  -93.5606   25.6459   -0.1674 H   0  0  0  0  0  0  0  0  0  0  0  0
  -92.2947   23.9711   -0.5003 C   0  0  0  0  0  0  0  0  0  0  0  0
  -91.1694   23.6893    0.4528 C   0  0  0  0  0  0  0  0  0  0  0  0
  -90.1514   23.2001   -0.0067 O   0  0  0  0  0  0  0  0  0  0  0  0
  -91.3678   24.0054    1.7788 N   0  0  0  0  0  0  0  0  0  0  0  0
  -92.3150   24.4170    2.0665 H   0  0  0  0  0  0  0  0  0  0  0  0
  -90.4976   23.9123    2.9654 C   0  0  0  0  0  0  0  0  0  0  0  0
  -90.2562   22.5543    3.3986 C   0  0  0  0  0  0  0  0  0  0  0  0
  -89.2453   22.0335    4.1006 O   0  0  0  0  0  0  0  0  0  0  0  0
  -91.1837   21.6723    3.0517 O   0  0  0  0  0  0  0  0  0  0  0  0
  -88.5831   21.3691    3.6668 H   0  0  0  0  0  0  0  0  0  0  0  0
  -90.7383   25.0231    3.8570 C   0  0  0  0  0  0  0  0  0  0  0  0
  -89.7398   25.8687    4.4865 C   0  0  0  0  0  0  0  0  0  0  0  0
  -90.0385   27.0318    5.2693 C   0  0  0  0  0  0  0  0  0  0  0  0
  -90.5380   28.2396    4.7591 O   0  0  0  0  0  0  0  0  0  0  0  0
  -89.8565   27.0135    6.5354 O   0  0  0  0  0  0  0  0  0  0  0  0
  -91.2650   28.2369    4.0411 H   0  0  0  0  0  0  0  0  0  0  0  0
  -92.2023   23.3149   -1.8165 C   0  0  0  0  0  0  0  0  0  0  0  0
  -93.3975   23.1785   -2.6714 C   0  0  0  0  0  0  0  0  0  0  0  0
  -93.4714   24.0367   -3.8527 C   0  0  0  0  0  0  0  0  0  0  0  0
  -94.0625   23.4761   -5.0575 O   0  0  0  0  0  0  0  0  0  0  0  0
  -93.0971   25.1834   -3.9904 O   0  0  0  0  0  0  0  0  0  0  0  0
  -94.9609   23.8467   -5.3411 H   0  0  0  0  0  0  0  0  0  0  0  0
  -92.5822   28.2281   -2.4863 C   0  0  0  0  0  0  0  0  0  0  0  0
  -92.6749   29.6891   -2.6609 C   0  0  0  0  0  0  0  0  0  0  0  0
  -92.0023   30.2346   -3.8361 C   0  0  0  0  0  0  0  0  0  0  0  0
  -92.6349   31.2735   -4.5687 O   0  0  0  0  0  0  0  0  0  0  0  0
  -90.9066   29.8628   -4.2506 O   0  0  0  0  0  0  0  0  0  0  0  0
  -92.0392   31.8656   -5.1155 H   0  0  0  0  0  0  0  0  0  0  0  0
  -87.9849   29.1391   -1.5472 C   0  0  0  0  0  0  0  0  0  0  0  0
  -87.7712   31.1050   -3.4059 C   0  0  0  0  0  0  0  0  0  0  0  0
  -87.6923   30.9316   -4.6292 O   0  0  0  0  0  0  0  0  0  0  0  0
  -87.8789   30.1176   -2.4681 N   0  0  0  0  0  0  0  0  0  0  0  0
  -87.8306   29.2071   -3.4548 H   0  0  0  0  0  0  0  0  0  0  0  0
  -87.7102   32.5859   -3.0533 C   0  0  0  0  0  0  0  0  0  0  0  0
  -86.3476   32.8349   -1.0167 C   0  0  0  0  0  0  0  0  0  0  0  0
  -87.3986   32.6770   -0.3287 O   0  0  0  0  0  0  0  0  0  0  0  0
  -86.3928   32.8152   -2.4546 N   0  0  0  0  0  0  0  0  0  0  0  0
  -85.5423   32.9542   -3.0001 H   0  0  0  0  0  0  0  0  0  0  0  0
  -85.0579   33.0426   -0.3046 C   0  0  0  0  0  0  0  0  0  0  0  0
  -84.1017   33.6148   -1.2151 N   0  0  0  0  0  0  0  0  0  0  0  0
  -84.4852   34.5524   -1.4829 H   0  0  0  0  0  0  0  0  0  0  0  0
  -83.9765   32.9778   -2.0128 H   0  0  0  0  0  0  0  0  0  0  0  0
  -84.7944   31.4986    1.6754 C   0  0  0  0  0  0  0  0  0  0  0  0
  -84.6000   31.7066    0.1943 C   0  0  0  0  0  0  0  0  0  0  0  0
  -83.1261   31.5596   -0.1236 C   0  0  0  0  0  0  0  0  0  0  0  0
  -87.7312   33.3806   -4.3205 C   0  0  0  0  0  0  0  0  0  0  0  0
  -88.9726   34.2011   -4.4645 C   0  0  0  0  0  0  0  0  0  0  0  0
  -89.9610   33.6312   -5.3613 C   0  0  0  0  0  0  0  0  0  0  0  0
  -90.1481   32.3373   -5.7426 O   0  0  0  0  0  0  0  0  0  0  0  0
  -90.8086   34.4678   -5.9111 O   0  0  0  0  0  0  0  0  0  0  0  0
  -89.4137   31.6296   -5.5425 H   0  0  0  0  0  0  0  0  0  0  0  0
  -87.1673   29.1353   -0.3106 C   0  0  0  0  0  0  0  0  0  0  0  0
  -86.5822   27.8205    0.0646 C   0  0  0  0  0  0  0  0  0  0  0  0
  -87.3351   27.2450    1.2053 C   0  0  0  0  0  0  0  0  0  0  0  0
  -87.7946   25.9165    1.1595 O   0  0  0  0  0  0  0  0  0  0  0  0
  -87.6180   27.8622    2.2641 O   0  0  0  0  0  0  0  0  0  0  0  0
  -87.4191   25.1959    0.5865 H   0  0  0  0  0  0  0  0  0  0  0  0
 52 53  1  0  0  0
 53 54  1  0  0  0
 53 48  1  0  0  0
 48 49  1  0  0  0
 48 44  1  0  0  0
 44 45  2  0  0  0
 44 46  1  0  0  0
 46 43  1  0  0  0
 43 55  1  0  0  0
 55 56  1  0  0  0
 56 57  1  0  0  0
 57 58  1  0  0  0
 57 59  2  0  0  0
 43 39  1  0  0  0
 39 40  2  0  0  0
 39 41  1  0  0  0
 41 38  1  0  0  0
 38 61  1  0  0  0
 61 62  1  0  0  0
 62 63  1  0  0  0
 63 64  1  0  0  0
 63 65  2  0  0  0
 38  1  1  0  0  0
  1  2  2  0  0  0
  1  3  1  0  0  0
  3  5  1  0  0  0
  5 32  1  0  0  0
 32 33  1  0  0  0
 33 34  1  0  0  0
 34 35  1  0  0  0
 34 36  2  0  0  0
  5  6  1  0  0  0
  6  7  2  0  0  0
  6  8  1  0  0  0
  8 10  1  0  0  0
 10 26  1  0  0  0
 26 27  1  0  0  0
 27 28  1  0  0  0
 28 29  1  0  0  0
 28 30  2  0  0  0
 10 11  1  0  0  0
 11 12  2  0  0  0
 11 13  1  0  0  0
 13 15  1  0  0  0
 15 20  1  0  0  0
 20 21  1  0  0  0
 21 22  1  0  0  0
 22 23  1  0  0  0
 22 24  2  0  0  0
 15 16  1  0  0  0
 16 17  1  0  0  0
 16 18  2  0  0  0
 49 50  1  0  0  0
 49 51  1  0  0  0
 46 47  1  0  0  0
 58 60  1  0  0  0
 41 42  1  0  0  0
 64 66  1  0  0  0
  3  4  1  0  0  0
 35 37  1  0  0  0
  8  9  1  0  0  0
 29 31  1  0  0  0
 13 14  1  0  0  0
 23 25  1  0  0  0
 17 19  1  0  0  0
M  END
> <minimizedAffinity>
-7.23326

> <CNNscore>
0.0169694349

> <CNNaffinity>
5.8838300705

> <CNN_VS>
0.0998452678

> <CNNaffinity_variance>
0.5362121463

$$$$
[H]OC(=O)C([H])([H])C([H])([H])[C@@]([H])(C(=O)O[H])N([H])C(=O)[C@@]([H])(N([H])C(=O)[C@@]([H])(N([H])C(=O)[C@@]([H])(N([H])C(=O)[C@@]([H])(N([H])C(=O)[C@]([H])(N([H])[H])C([H])(C([H])([H])[H])C([H])([H])[H])C([H])([H])C([H])([H])C(=O)O[H])C([H])([H])C([H])([H])C(=O)O[H])C([H])([H])C([H])([H])C(=O)O[H])C([H])([H])C([H])([H])C(=O)O[H]


 66 65  0  0  0  0  0  0  0  0999 V2000
  -90.3386   29.9249   -2.5943 C   0  0  0  0  0  0  0  0  0  0  0  0
  -90.8183   31.0590   -2.2137 O   0  0  0  0  0  0  0  0  0  0  0  0
  -91.1179   28.8578   -2.9404 N   0  0  0  0  0  0  0  0  0  0  0  0
  -90.5325   27.9938   -3.2584 H   0  0  0  0  0  0  0  0  0  0  0  0
  -92.5744   28.6407   -2.9697 C   0  0  0  0  0  0  0  0  0  0  0  0
  -92.8483   27.2554   -2.7017 C   0  0  0  0  0  0  0  0  0  0  0  0
  -94.1115   26.9841   -2.3104 O   0  0  0  0  0  0  0  0  0  0  0  0
  -92.1050   26.0521   -2.7482 N   0  0  0  0  0  0  0  0  0  0  0  0
  -91.1168   25.9781   -3.0084 H   0  0  0  0  0  0  0  0  0  0  0  0
  -92.7805   24.8141   -2.3793 C   0  0  0  0  0  0  0  0  0  0  0  0
  -92.3934   24.3248   -1.0137 C   0  0  0  0  0  0  0  0  0  0  0  0
  -93.2912   23.9846   -0.2620 O   0  0  0  0  0  0  0  0  0  0  0  0
  -91.0504   24.2941   -0.7085 N   0  0  0  0  0  0  0  0  0  0  0  0
  -90.3537   24.6355   -1.4483 H   0  0  0  0  0  0  0  0  0  0  0  0
  -90.3111   23.8473    0.4863 C   0  0  0  0  0  0  0  0  0  0  0  0
  -90.6218   22.4925    0.8839 C   0  0  0  0  0  0  0  0  0  0  0  0
  -91.6434   22.0096    1.5975 O   0  0  0  0  0  0  0  0  0  0  0  0
  -89.7620   21.5683    0.4778 O   0  0  0  0  0  0  0  0  0  0  0  0
  -91.4923   21.6053    2.5365 H   0  0  0  0  0  0  0  0  0  0  0  0
  -90.1257   24.9458    1.4059 C   0  0  0  0  0  0  0  0  0  0  0  0
  -89.8636   24.8556    2.8313 C   0  0  0  0  0  0  0  0  0  0  0  0
  -90.8794   24.7858    3.8402 C   0  0  0  0  0  0  0  0  0  0  0  0
  -91.1679   25.8014    4.7644 O   0  0  0  0  0  0  0  0  0  0  0  0
  -91.6077   23.7390    3.9419 O   0  0  0  0  0  0  0  0  0  0  0  0
  -91.1852   26.7797    4.4697 H   0  0  0  0  0  0  0  0  0  0  0  0
  -92.8095   23.7951   -3.4433 C   0  0  0  0  0  0  0  0  0  0  0  0
  -93.9964   22.9377   -3.6275 C   0  0  0  0  0  0  0  0  0  0  0  0
  -95.2817   23.4781   -3.1875 C   0  0  0  0  0  0  0  0  0  0  0  0
  -95.7643   23.0846   -1.8732 O   0  0  0  0  0  0  0  0  0  0  0  0
  -96.0382   24.2261   -3.7725 O   0  0  0  0  0  0  0  0  0  0  0  0
  -95.7780   23.8009   -1.1578 H   0  0  0  0  0  0  0  0  0  0  0  0
  -93.1370   29.2253   -4.2364 C   0  0  0  0  0  0  0  0  0  0  0  0
  -94.3143   30.1073   -4.1380 C   0  0  0  0  0  0  0  0  0  0  0  0
  -94.3072   31.0590   -3.0311 C   0  0  0  0  0  0  0  0  0  0  0  0
  -93.3694   32.1251   -3.0484 O   0  0  0  0  0  0  0  0  0  0  0  0
  -95.0662   31.0146   -2.0654 O   0  0  0  0  0  0  0  0  0  0  0  0
  -93.6034   32.9388   -2.5121 H   0  0  0  0  0  0  0  0  0  0  0  0
  -88.7988   29.8492   -2.6283 C   0  0  0  0  0  0  0  0  0  0  0  0
  -87.6286   32.1718   -3.4037 C   0  0  0  0  0  0  0  0  0  0  0  0
  -87.0435   32.3576   -4.4787 O   0  0  0  0  0  0  0  0  0  0  0  0
  -88.2186   31.0041   -3.0107 N   0  0  0  0  0  0  0  0  0  0  0  0
  -87.8284   30.4446   -4.1682 H   0  0  0  0  0  0  0  0  0  0  0  0
  -87.5957   33.4224   -2.5341 C   0  0  0  0  0  0  0  0  0  0  0  0
  -86.1031   32.8815   -0.6510 C   0  0  0  0  0  0  0  0  0  0  0  0
  -87.0880   32.3479   -0.0609 O   0  0  0  0  0  0  0  0  0  0  0  0
  -86.2541   33.4845   -1.9485 N   0  0  0  0  0  0  0  0  0  0  0  0
  -85.4570   33.9214   -2.4110 H   0  0  0  0  0  0  0  0  0  0  0  0
  -84.7793   32.8725    0.0280 C   0  0  0  0  0  0  0  0  0  0  0  0
  -83.7622   33.2595   -0.9135 N   0  0  0  0  0  0  0  0  0  0  0  0
  -83.9852   34.2457   -1.1884 H   0  0  0  0  0  0  0  0  0  0  0  0
  -83.7688   32.6003   -1.7030 H   0  0  0  0  0  0  0  0  0  0  0  0
  -84.6107   31.3575    2.0405 C   0  0  0  0  0  0  0  0  0  0  0  0
  -84.5459   31.4841    0.5389 C   0  0  0  0  0  0  0  0  0  0  0  0
  -83.1766   31.0305    0.0758 C   0  0  0  0  0  0  0  0  0  0  0  0
  -87.7157   34.6231   -3.4183 C   0  0  0  0  0  0  0  0  0  0  0  0
  -89.1029   35.1798   -3.4474 C   0  0  0  0  0  0  0  0  0  0  0  0
  -90.0531   34.3694   -4.1867 C   0  0  0  0  0  0  0  0  0  0  0  0
  -90.9808   33.4823   -3.7320 O   0  0  0  0  0  0  0  0  0  0  0  0
  -90.0293   34.4799   -5.4935 O   0  0  0  0  0  0  0  0  0  0  0  0
  -90.9439   33.1582   -2.7452 H   0  0  0  0  0  0  0  0  0  0  0  0
  -88.4455   29.1794   -1.3539 C   0  0  0  0  0  0  0  0  0  0  0  0
  -87.1943   28.3759   -1.3796 C   0  0  0  0  0  0  0  0  0  0  0  0
  -87.4354   27.0544   -0.7514 C   0  0  0  0  0  0  0  0  0  0  0  0
  -87.8853   25.9685   -1.5238 O   0  0  0  0  0  0  0  0  0  0  0  0
  -87.2686   26.7976    0.4686 O   0  0  0  0  0  0  0  0  0  0  0  0
  -87.7745   25.8754   -2.5074 H   0  0  0  0  0  0  0  0  0  0  0  0
 52 53  1  0  0  0
 53 54  1  0  0  0
 53 48  1  0  0  0
 48 49  1  0  0  0
 48 44  1  0  0  0
 44 45  2  0  0  0
 44 46  1  0  0  0
 46 43  1  0  0  0
 43 55  1  0  0  0
 55 56  1  0  0  0
 56 57  1  0  0  0
 57 58  1  0  0  0
 57 59  2  0  0  0
 43 39  1  0  0  0
 39 40  2  0  0  0
 39 41  1  0  0  0
 41 38  1  0  0  0
 38 61  1  0  0  0
 61 62  1  0  0  0
 62 63  1  0  0  0
 63 64  1  0  0  0
 63 65  2  0  0  0
 38  1  1  0  0  0
  1  2  2  0  0  0
  1  3  1  0  0  0
  3  5  1  0  0  0
  5 32  1  0  0  0
 32 33  1  0  0  0
 33 34  1  0  0  0
 34 35  1  0  0  0
 34 36  2  0  0  0
  5  6  1  0  0  0
  6  7  2  0  0  0
  6  8  1  0  0  0
  8 10  1  0  0  0
 10 26  1  0  0  0
 26 27  1  0  0  0
 27 28  1  0  0  0
 28 29  1  0  0  0
 28 30  2  0  0  0
 10 11  1  0  0  0
 11 12  2  0  0  0
 11 13  1  0  0  0
 13 15  1  0  0  0
 15 20  1  0  0  0
 20 21  1  0  0  0
 21 22  1  0  0  0
 22 23  1  0  0  0
 22 24  2  0  0  0
 15 16  1  0  0  0
 16 17  1  0  0  0
 16 18  2  0  0  0
 49 50  1  0  0  0
 49 51  1  0  0  0
 46 47  1  0  0  0
 58 60  1  0  0  0
 41 42  1  0  0  0
 64 66  1  0  0  0
  3  4  1  0  0  0
 35 37  1  0  0  0
  8  9  1  0  0  0
 29 31  1  0  0  0
 13 14  1  0  0  0
 23 25  1  0  0  0
 17 19  1  0  0  0
M  END
> <minimizedAffinity>
-6.64415

> <CNNscore>
0.0164049100

> <CNNaffinity>
5.7546977997

> <CNN_VS>
0.0944053009

> <CNNaffinity_variance>
0.3695137501

$$$$
[H]OC(=O)C([H])([H])C([H])([H])[C@@]([H])(C(=O)O[H])N([H])C(=O)[C@@]([H])(N([H])C(=O)[C@@]([H])(N([H])C(=O)[C@@]([H])(N([H])C(=O)[C@@]([H])(N([H])C(=O)[C@]([H])(N([H])[H])C([H])(C([H])([H])[H])C([H])([H])[H])C([H])([H])C([H])([H])C(=O)O[H])C([H])([H])C([H])([H])C(=O)O[H])C([H])([H])C([H])([H])C(=O)O[H])C([H])([H])C([H])([H])C(=O)O[H]


 66 65  0  0  0  0  0  0  0  0999 V2000
  -89.0386   27.8907   -0.7999 C   0  0  0  0  0  0  0  0  0  0  0  0
  -89.9879   28.5539   -0.2342 O   0  0  0  0  0  0  0  0  0  0  0  0
  -89.0823   26.5404   -1.0015 N   0  0  0  0  0  0  0  0  0  0  0  0
  -88.1980   26.1622   -1.5167 H   0  0  0  0  0  0  0  0  0  0  0  0
  -90.0724   25.5027   -0.6663 C   0  0  0  0  0  0  0  0  0  0  0  0
  -90.0059   25.2281    0.7430 C   0  0  0  0  0  0  0  0  0  0  0  0
  -88.7609   25.0658    1.2392 O   0  0  0  0  0  0  0  0  0  0  0  0
  -90.9483   25.0820    1.7886 N   0  0  0  0  0  0  0  0  0  0  0  0
  -91.9648   25.1511    1.6813 H   0  0  0  0  0  0  0  0  0  0  0  0
  -90.4485   24.7893    3.1263 C   0  0  0  0  0  0  0  0  0  0  0  0
  -90.6419   23.3530    3.5184 C   0  0  0  0  0  0  0  0  0  0  0  0
  -91.7519   23.0166    3.8946 O   0  0  0  0  0  0  0  0  0  0  0  0
  -89.5507   22.5176    3.4234 N   0  0  0  0  0  0  0  0  0  0  0  0
  -88.6194   22.9342    3.0941 H   0  0  0  0  0  0  0  0  0  0  0  0
  -89.3764   21.0753    3.6748 C   0  0  0  0  0  0  0  0  0  0  0  0
  -88.3635   20.7803    4.6634 C   0  0  0  0  0  0  0  0  0  0  0  0
  -87.8814   21.5263    5.6620 O   0  0  0  0  0  0  0  0  0  0  0  0
  -87.8182   19.5747    4.5780 O   0  0  0  0  0  0  0  0  0  0  0  0
  -86.9059   21.8671    5.6484 H   0  0  0  0  0  0  0  0  0  0  0  0
  -89.5726   20.3228    2.4575 C   0  0  0  0  0  0  0  0  0  0  0  0
  -90.1736   20.7993    1.2245 C   0  0  0  0  0  0  0  0  0  0  0  0
  -91.5108   20.4990    0.8048 C   0  0  0  0  0  0  0  0  0  0  0  0
  -91.8709   19.4373   -0.0390 O   0  0  0  0  0  0  0  0  0  0  0  0
  -92.4849   21.2234    1.2083 O   0  0  0  0  0  0  0  0  0  0  0  0
  -91.4392   18.5179    0.0729 H   0  0  0  0  0  0  0  0  0  0  0  0
  -90.8133   25.7890    4.1455 C   0  0  0  0  0  0  0  0  0  0  0  0
  -89.9180   26.9261    4.4341 C   0  0  0  0  0  0  0  0  0  0  0  0
  -89.4472   27.7081    3.2920 C   0  0  0  0  0  0  0  0  0  0  0  0
  -90.4499   28.2917    2.4150 O   0  0  0  0  0  0  0  0  0  0  0  0
  -88.3085   27.9491    2.9465 O   0  0  0  0  0  0  0  0  0  0  0  0
  -90.5449   29.2994    2.4359 H   0  0  0  0  0  0  0  0  0  0  0  0
  -89.9095   24.3402   -1.6067 C   0  0  0  0  0  0  0  0  0  0  0  0
  -90.9618   23.3078   -1.6329 C   0  0  0  0  0  0  0  0  0  0  0  0
  -91.8648   23.3469   -2.7793 C   0  0  0  0  0  0  0  0  0  0  0  0
  -92.2870   22.1230   -3.3626 O   0  0  0  0  0  0  0  0  0  0  0  0
  -92.3028   24.3753   -3.2901 O   0  0  0  0  0  0  0  0  0  0  0  0
  -93.1475   22.1426   -3.8760 H   0  0  0  0  0  0  0  0  0  0  0  0
  -87.8259   28.7368   -1.2371 C   0  0  0  0  0  0  0  0  0  0  0  0
  -88.2942   30.2123   -3.4662 C   0  0  0  0  0  0  0  0  0  0  0  0
  -87.5769   30.2376   -4.4749 O   0  0  0  0  0  0  0  0  0  0  0  0
  -88.0611   29.4707   -2.3429 N   0  0  0  0  0  0  0  0  0  0  0  0
  -86.9348   29.0078   -2.9104 H   0  0  0  0  0  0  0  0  0  0  0  0
  -89.4889   31.1460   -3.6150 C   0  0  0  0  0  0  0  0  0  0  0  0
  -91.5749   29.9058   -3.1940 C   0  0  0  0  0  0  0  0  0  0  0  0
  -91.6412   29.6534   -4.4328 O   0  0  0  0  0  0  0  0  0  0  0  0
  -90.4950   30.6878   -2.6534 N   0  0  0  0  0  0  0  0  0  0  0  0
  -90.4562   30.8949   -1.6555 H   0  0  0  0  0  0  0  0  0  0  0  0
  -92.6420   29.3749   -2.3035 C   0  0  0  0  0  0  0  0  0  0  0  0
  -92.3828   27.9860   -2.0306 N   0  0  0  0  0  0  0  0  0  0  0  0
  -91.4746   27.9603   -1.5087 H   0  0  0  0  0  0  0  0  0  0  0  0
  -92.3618   27.4686   -2.9193 H   0  0  0  0  0  0  0  0  0  0  0  0
  -94.7486   30.7448   -2.5469 C   0  0  0  0  0  0  0  0  0  0  0  0
  -93.9491   29.5538   -3.0127 C   0  0  0  0  0  0  0  0  0  0  0  0
  -94.7793   28.3041   -2.8027 C   0  0  0  0  0  0  0  0  0  0  0  0
  -89.0846   32.5151   -3.1679 C   0  0  0  0  0  0  0  0  0  0  0  0
  -88.6903   32.5567   -1.7265 C   0  0  0  0  0  0  0  0  0  0  0  0
  -87.4126   33.1984   -1.4782 C   0  0  0  0  0  0  0  0  0  0  0  0
  -86.5087   32.9837   -0.4825 O   0  0  0  0  0  0  0  0  0  0  0  0
  -87.0537   34.1396   -2.3183 O   0  0  0  0  0  0  0  0  0  0  0  0
  -86.7811   32.4221    0.3486 H   0  0  0  0  0  0  0  0  0  0  0  0
  -87.3456   29.3515    0.0235 C   0  0  0  0  0  0  0  0  0  0  0  0
  -85.8766   29.5664    0.1107 C   0  0  0  0  0  0  0  0  0  0  0  0
  -85.2948   28.6444    1.1160 C   0  0  0  0  0  0  0  0  0  0  0  0
  -85.9698   27.4645    1.4771 O   0  0  0  0  0  0  0  0  0  0  0  0
  -84.1999   28.8252    1.7081 O   0  0  0  0  0  0  0  0  0  0  0  0
  -86.6505   26.9970    0.9233 H   0  0  0  0  0  0  0  0  0  0  0  0
 52 53  1  0  0  0
 53 54  1  0  0  0
 53 48  1  0  0  0
 48 49  1  0  0  0
 48 44  1  0  0  0
 44 45  2  0  0  0
 44 46  1  0  0  0
 46 43  1  0  0  0
 43 55  1  0  0  0
 55 56  1  0  0  0
 56 57  1  0  0  0
 57 58  1  0  0  0
 57 59  2  0  0  0
 43 39  1  0  0  0
 39 40  2  0  0  0
 39 41  1  0  0  0
 41 38  1  0  0  0
 38 61  1  0  0  0
 61 62  1  0  0  0
 62 63  1  0  0  0
 63 64  1  0  0  0
 63 65  2  0  0  0
 38  1  1  0  0  0
  1  2  2  0  0  0
  1  3  1  0  0  0
  3  5  1  0  0  0
  5 32  1  0  0  0
 32 33  1  0  0  0
 33 34  1  0  0  0
 34 35  1  0  0  0
 34 36  2  0  0  0
  5  6  1  0  0  0
  6  7  2  0  0  0
  6  8  1  0  0  0
  8 10  1  0  0  0
 10 26  1  0  0  0
 26 27  1  0  0  0
 27 28  1  0  0  0
 28 29  1  0  0  0
 28 30  2  0  0  0
 10 11  1  0  0  0
 11 12  2  0  0  0
 11 13  1  0  0  0
 13 15  1  0  0  0
 15 20  1  0  0  0
 20 21  1  0  0  0
 21 22  1  0  0  0
 22 23  1  0  0  0
 22 24  2  0  0  0
 15 16  1  0  0  0
 16 17  1  0  0  0
 16 18  2  0  0  0
 49 50  1  0  0  0
 49 51  1  0  0  0
 46 47  1  0  0  0
 58 60  1  0  0  0
 41 42  1  0  0  0
 64 66  1  0  0  0
  3  4  1  0  0  0
 35 37  1  0  0  0
  8  9  1  0  0  0
 29 31  1  0  0  0
 13 14  1  0  0  0
 23 25  1  0  0  0
 17 19  1  0  0  0
M  END
> <minimizedAffinity>
-7.01551

> <CNNscore>
0.0134254796

> <CNNaffinity>
5.7566862106

> <CNN_VS>
0.0772862732

> <CNNaffinity_variance>
0.4037309587

$$$$
[H]OC(=O)C([H])([H])C([H])([H])[C@@]([H])(C(=O)O[H])N([H])C(=O)[C@@]([H])(N([H])C(=O)[C@@]([H])(N([H])C(=O)[C@@]([H])(N([H])C(=O)[C@@]([H])(N([H])C(=O)[C@]([H])(N([H])[H])C([H])(C([H])([H])[H])C([H])([H])[H])C([H])([H])C([H])([H])C(=O)O[H])C([H])([H])C([H])([H])C(=O)O[H])C([H])([H])C([H])([H])C(=O)O[H])C([H])([H])C([H])([H])C(=O)O[H]


 66 65  0  0  0  0  0  0  0  0999 V2000
  -86.6976   29.4422   -0.8790 C   0  0  0  0  0  0  0  0  0  0  0  0
  -87.1108   28.8256   -1.9325 O   0  0  0  0  0  0  0  0  0  0  0  0
  -86.2830   28.8001    0.2532 N   0  0  0  0  0  0  0  0  0  0  0  0
  -85.9469   29.4890    1.0295 H   0  0  0  0  0  0  0  0  0  0  0  0
  -86.2000   27.3794    0.6331 C   0  0  0  0  0  0  0  0  0  0  0  0
  -87.4858   26.7662    0.4414 C   0  0  0  0  0  0  0  0  0  0  0  0
  -88.5220   27.4104    1.0192 O   0  0  0  0  0  0  0  0  0  0  0  0
  -87.9658   25.6156   -0.2281 N   0  0  0  0  0  0  0  0  0  0  0  0
  -87.3850   24.9466   -0.7428 H   0  0  0  0  0  0  0  0  0  0  0  0
  -89.3953   25.3361   -0.1725 C   0  0  0  0  0  0  0  0  0  0  0  0
  -89.7688   24.4398    0.9727 C   0  0  0  0  0  0  0  0  0  0  0  0
  -90.2179   23.3388    0.7027 O   0  0  0  0  0  0  0  0  0  0  0  0
  -89.5756   24.9259    2.2471 N   0  0  0  0  0  0  0  0  0  0  0  0
  -89.1882   25.9193    2.3584 H   0  0  0  0  0  0  0  0  0  0  0  0
  -89.7817   24.3321    3.5808 C   0  0  0  0  0  0  0  0  0  0  0  0
  -90.5709   23.1209    3.5574 C   0  0  0  0  0  0  0  0  0  0  0  0
  -90.1999   21.8454    3.4111 O   0  0  0  0  0  0  0  0  0  0  0  0
  -91.8776   23.2895    3.7077 O   0  0  0  0  0  0  0  0  0  0  0  0
  -90.4597   21.3093    2.5666 H   0  0  0  0  0  0  0  0  0  0  0  0
  -89.9041   25.3669    4.5813 C   0  0  0  0  0  0  0  0  0  0  0  0
  -90.7864   26.5194    4.5409 C   0  0  0  0  0  0  0  0  0  0  0  0
  -90.4520   27.7765    3.9388 C   0  0  0  0  0  0  0  0  0  0  0  0
  -89.1480   28.2640    3.7632 O   0  0  0  0  0  0  0  0  0  0  0  0
  -91.3794   28.5456    3.5088 O   0  0  0  0  0  0  0  0  0  0  0  0
  -88.3994   27.6404    3.4552 H   0  0  0  0  0  0  0  0  0  0  0  0
  -90.0027   25.0044   -1.4734 C   0  0  0  0  0  0  0  0  0  0  0  0
  -91.0958   25.8301   -2.0223 C   0  0  0  0  0  0  0  0  0  0  0  0
  -90.7651   27.2019   -2.4047 C   0  0  0  0  0  0  0  0  0  0  0  0
  -90.9420   27.5745   -3.7994 O   0  0  0  0  0  0  0  0  0  0  0  0
  -90.3450   28.1086   -1.7152 O   0  0  0  0  0  0  0  0  0  0  0  0
  -91.6921   28.2215   -4.0082 H   0  0  0  0  0  0  0  0  0  0  0  0
  -85.5756   27.2669    1.9969 C   0  0  0  0  0  0  0  0  0  0  0  0
  -84.7612   28.3930    2.4893 C   0  0  0  0  0  0  0  0  0  0  0  0
  -83.3207   28.1623    2.5429 C   0  0  0  0  0  0  0  0  0  0  0  0
  -82.8405   26.9437    3.0912 O   0  0  0  0  0  0  0  0  0  0  0  0
  -82.4702   28.9525    2.1395 O   0  0  0  0  0  0  0  0  0  0  0  0
  -81.9286   26.6475    2.7994 H   0  0  0  0  0  0  0  0  0  0  0  0
  -86.7075   30.9809   -0.9807 C   0  0  0  0  0  0  0  0  0  0  0  0
  -89.1524   31.9956   -1.5788 C   0  0  0  0  0  0  0  0  0  0  0  0
  -90.1107   32.0681   -0.7984 O   0  0  0  0  0  0  0  0  0  0  0  0
  -87.9208   31.4855   -1.2806 N   0  0  0  0  0  0  0  0  0  0  0  0
  -88.3585   31.2162   -0.0393 H   0  0  0  0  0  0  0  0  0  0  0  0
  -89.5199   32.5347   -2.9556 C   0  0  0  0  0  0  0  0  0  0  0  0
  -91.3540   31.2109   -3.9303 C   0  0  0  0  0  0  0  0  0  0  0  0
  -90.4881   30.4748   -4.4880 O   0  0  0  0  0  0  0  0  0  0  0  0
  -90.9618   32.3264   -3.1107 N   0  0  0  0  0  0  0  0  0  0  0  0
  -91.6671   32.9201   -2.6743 H   0  0  0  0  0  0  0  0  0  0  0  0
  -92.7932   30.8977   -4.1406 C   0  0  0  0  0  0  0  0  0  0  0  0
  -93.0921   29.6231   -3.5431 N   0  0  0  0  0  0  0  0  0  0  0  0
  -92.9272   29.7418   -2.5152 H   0  0  0  0  0  0  0  0  0  0  0  0
  -92.4978   28.9034   -3.9752 H   0  0  0  0  0  0  0  0  0  0  0  0
  -93.1073   32.2398   -6.2557 C   0  0  0  0  0  0  0  0  0  0  0  0
  -93.0366   30.8747   -5.6183 C   0  0  0  0  0  0  0  0  0  0  0  0
  -94.3451   30.1552   -5.8738 C   0  0  0  0  0  0  0  0  0  0  0  0
  -89.3144   34.0164   -2.9596 C   0  0  0  0  0  0  0  0  0  0  0  0
  -88.7512   34.5158   -4.2513 C   0  0  0  0  0  0  0  0  0  0  0  0
  -87.3262   34.7873   -4.2128 C   0  0  0  0  0  0  0  0  0  0  0  0
  -86.3389   34.1631   -3.5127 O   0  0  0  0  0  0  0  0  0  0  0  0
  -86.8977   35.7873   -4.9455 O   0  0  0  0  0  0  0  0  0  0  0  0
  -86.5868   33.5064   -2.7462 H   0  0  0  0  0  0  0  0  0  0  0  0
  -85.9484   31.4231    0.2133 C   0  0  0  0  0  0  0  0  0  0  0  0
  -85.2395   32.7231    0.0747 C   0  0  0  0  0  0  0  0  0  0  0  0
  -83.7924   32.4831   -0.1435 C   0  0  0  0  0  0  0  0  0  0  0  0
  -83.2139   31.2485    0.2017 O   0  0  0  0  0  0  0  0  0  0  0  0
  -82.9908   33.3205   -0.6317 O   0  0  0  0  0  0  0  0  0  0  0  0
  -83.7032   30.3879    0.2934 H   0  0  0  0  0  0  0  0  0  0  0  0
 52 53  1  0  0  0
 53 54  1  0  0  0
 53 48  1  0  0  0
 48 49  1  0  0  0
 48 44  1  0  0  0
 44 45  2  0  0  0
 44 46  1  0  0  0
 46 43  1  0  0  0
 43 55  1  0  0  0
 55 56  1  0  0  0
 56 57  1  0  0  0
 57 58  1  0  0  0
 57 59  2  0  0  0
 43 39  1  0  0  0
 39 40  2  0  0  0
 39 41  1  0  0  0
 41 38  1  0  0  0
 38 61  1  0  0  0
 61 62  1  0  0  0
 62 63  1  0  0  0
 63 64  1  0  0  0
 63 65  2  0  0  0
 38  1  1  0  0  0
  1  2  2  0  0  0
  1  3  1  0  0  0
  3  5  1  0  0  0
  5 32  1  0  0  0
 32 33  1  0  0  0
 33 34  1  0  0  0
 34 35  1  0  0  0
 34 36  2  0  0  0
  5  6  1  0  0  0
  6  7  2  0  0  0
  6  8  1  0  0  0
  8 10  1  0  0  0
 10 26  1  0  0  0
 26 27  1  0  0  0
 27 28  1  0  0  0
 28 29  1  0  0  0
 28 30  2  0  0  0
 10 11  1  0  0  0
 11 12  2  0  0  0
 11 13  1  0  0  0
 13 15  1  0  0  0
 15 20  1  0  0  0
 20 21  1  0  0  0
 21 22  1  0  0  0
 22 23  1  0  0  0
 22 24  2  0  0  0
 15 16  1  0  0  0
 16 17  1  0  0  0
 16 18  2  0  0  0
 49 50  1  0  0  0
 49 51  1  0  0  0
 46 47  1  0  0  0
 58 60  1  0  0  0
 41 42  1  0  0  0
 64 66  1  0  0  0
  3  4  1  0  0  0
 35 37  1  0  0  0
  8  9  1  0  0  0
 29 31  1  0  0  0
 13 14  1  0  0  0
 23 25  1  0  0  0
 17 19  1  0  0  0
M  END
> <minimizedAffinity>
-7.93783

> <CNNscore>
0.0120751560

> <CNNaffinity>
5.8766045570

> <CNN_VS>
0.0709609166

> <CNNaffinity_variance>
0.7311265469

$$$$
[H]Oc1c(C([H])([H])c2c([H])c([H])c([H])c([H])c2[H])c([H])nc([H])c1C([H])([H])C([H])([H])C([H])([H])N1C(=O)N([H])C([H])([H])C1([H])[H]


 25 27  0  0  0  0  0  0  0  0999 V2000
  -84.8591   32.9197   -0.7419 C   0  0  0  0  0  0  0  0  0  0  0  0
  -85.3048   32.3258    0.4157 C   0  0  0  0  0  0  0  0  0  0  0  0
  -86.6462   32.3354    0.6820 O   0  0  0  0  0  0  0  0  0  0  0  0
  -84.4163   31.7206    1.3118 C   0  0  0  0  0  0  0  0  0  0  0  0
  -83.0667   31.7136    1.0393 C   0  0  0  0  0  0  0  0  0  0  0  0
  -82.6445   32.2984   -0.0973 N   0  0  0  0  0  0  0  0  0  0  0  0
  -83.5024   32.8922   -0.9792 C   0  0  0  0  0  0  0  0  0  0  0  0
  -87.0672   31.9203    1.5142 H   0  0  0  0  0  0  0  0  0  0  0  0
  -85.7807   33.5497   -1.6748 C   0  0  0  0  0  0  0  0  0  0  0  0
  -86.7847   32.6220   -2.2993 C   0  0  0  0  0  0  0  0  0  0  0  0
  -87.2154   33.2796   -3.6147 C   0  0  0  0  0  0  0  0  0  0  0  0
  -88.4807   32.8112   -4.0842 N   0  0  0  0  0  0  0  0  0  0  0  0
  -88.7732   31.6172   -4.7970 C   0  0  0  0  0  0  0  0  0  0  0  0
  -87.9555   30.6930   -5.0842 O   0  0  0  0  0  0  0  0  0  0  0  0
  -90.1628   31.6219   -5.1469 N   0  0  0  0  0  0  0  0  0  0  0  0
  -90.6034   33.0052   -5.0223 C   0  0  0  0  0  0  0  0  0  0  0  0
  -89.7340   33.5003   -3.9062 C   0  0  0  0  0  0  0  0  0  0  0  0
  -90.7187   30.8050   -5.4263 H   0  0  0  0  0  0  0  0  0  0  0  0
  -84.9356   31.0850    2.5605 C   0  0  0  0  0  0  0  0  0  0  0  0
  -85.1015   29.6323    2.3420 C   0  0  0  0  0  0  0  0  0  0  0  0
  -86.2918   29.1020    1.8402 C   0  0  0  0  0  0  0  0  0  0  0  0
  -86.4482   27.7483    1.6379 C   0  0  0  0  0  0  0  0  0  0  0  0
  -85.4330   26.8578    1.9231 C   0  0  0  0  0  0  0  0  0  0  0  0
  -84.2616   27.3900    2.4181 C   0  0  0  0  0  0  0  0  0  0  0  0
  -84.0936   28.7396    2.6244 C   0  0  0  0  0  0  0  0  0  0  0  0
  9  1  1  0  0  0
  1  2  2  0  0  0
  2  3  1  0  0  0
  2  4  1  0  0  0
  4 19  1  0  0  0
 19 20  1  0  0  0
 20 21  2  0  0  0
 21 22  1  0  0  0
 22 23  2  0  0  0
 23 24  1  0  0  0
 24 25  2  0  0  0
  4  5  2  0  0  0
  5  6  1  0  0  0
  6  7  2  0  0  0
  9 10  1  0  0  0
 10 11  1  0  0  0
 11 12  1  0  0  0
 12 13  1  0  0  0
 13 14  2  0  0  0
 13 15  1  0  0  0
 15 16  1  0  0  0
 16 17  1  0  0  0
  7  1  1  0  0  0
 17 12  1  0  0  0
 25 20  1  0  0  0
  3  8  1  0  0  0
 15 18  1  0  0  0
M  END
> <minimizedAffinity>
-7.27204

> <CNNscore>
0.7669002414

> <CNNaffinity>
6.3667049408

> <CNN_VS>
4.8826274872

> <CNNaffinity_variance>
0.1018587202

$$$$
[H]Oc1c(C([H])([H])c2c([H])c([H])c([H])c([H])c2[H])c([H])nc([H])c1C([H])([H])C([H])([H])C([H])([H])N1C(=O)N([H])C([H])([H])C1([H])[H]


 25 27  0  0  0  0  0  0  0  0999 V2000
  -85.1651   28.8902    0.9112 C   0  0  0  0  0  0  0  0  0  0  0  0
  -86.4526   28.4293    0.7645 C   0  0  0  0  0  0  0  0  0  0  0  0
  -87.3096   29.1266   -0.0415 O   0  0  0  0  0  0  0  0  0  0  0  0
  -86.8907   27.2731    1.4200 C   0  0  0  0  0  0  0  0  0  0  0  0
  -86.0241   26.5746    2.2304 C   0  0  0  0  0  0  0  0  0  0  0  0
  -84.7670   27.0369    2.3648 N   0  0  0  0  0  0  0  0  0  0  0  0
  -84.3283   28.1643    1.7300 C   0  0  0  0  0  0  0  0  0  0  0  0
  -88.2807   28.8606   -0.2097 H   0  0  0  0  0  0  0  0  0  0  0  0
  -84.7074   30.0920    0.2311 C   0  0  0  0  0  0  0  0  0  0  0  0
  -84.5122   31.2886    1.1192 C   0  0  0  0  0  0  0  0  0  0  0  0
  -85.7093   32.2108    0.8647 C   0  0  0  0  0  0  0  0  0  0  0  0
  -85.8158   32.6227   -0.4991 N   0  0  0  0  0  0  0  0  0  0  0  0
  -84.8723   33.3399   -1.2831 C   0  0  0  0  0  0  0  0  0  0  0  0
  -83.7058   33.6843   -0.9278 O   0  0  0  0  0  0  0  0  0  0  0  0
  -85.4567   33.6179   -2.5616 N   0  0  0  0  0  0  0  0  0  0  0  0
  -86.8938   33.4474   -2.3916 C   0  0  0  0  0  0  0  0  0  0  0  0
  -86.9496   32.3691   -1.3521 C   0  0  0  0  0  0  0  0  0  0  0  0
  -84.9487   33.8823   -3.4139 H   0  0  0  0  0  0  0  0  0  0  0  0
  -88.2969   26.8015    1.2381 C   0  0  0  0  0  0  0  0  0  0  0  0
  -88.9711   26.7422    2.5525 C   0  0  0  0  0  0  0  0  0  0  0  0
  -89.3116   25.5233    3.1427 C   0  0  0  0  0  0  0  0  0  0  0  0
  -89.9414   25.4670    4.3666 C   0  0  0  0  0  0  0  0  0  0  0  0
  -90.2628   26.6150    5.0621 C   0  0  0  0  0  0  0  0  0  0  0  0
  -89.9231   27.8137    4.4720 C   0  0  0  0  0  0  0  0  0  0  0  0
  -89.2941   27.8827    3.2506 C   0  0  0  0  0  0  0  0  0  0  0  0
  9  1  1  0  0  0
  1  2  2  0  0  0
  2  3  1  0  0  0
  2  4  1  0  0  0
  4 19  1  0  0  0
 19 20  1  0  0  0
 20 21  2  0  0  0
 21 22  1  0  0  0
 22 23  2  0  0  0
 23 24  1  0  0  0
 24 25  2  0  0  0
  4  5  2  0  0  0
  5  6  1  0  0  0
  6  7  2  0  0  0
  9 10  1  0  0  0
 10 11  1  0  0  0
 11 12  1  0  0  0
 12 13  1  0  0  0
 13 14  2  0  0  0
 13 15  1  0  0  0
 15 16  1  0  0  0
 16 17  1  0  0  0
  7  1  1  0  0  0
 17 12  1  0  0  0
 25 20  1  0  0  0
  3  8  1  0  0  0
 15 18  1  0  0  0
M  END
> <minimizedAffinity>
-7.08051

> <CNNscore>
0.7611731887

> <CNNaffinity>
6.6562118530

> <CNN_VS>
5.0665302277

> <CNNaffinity_variance>
0.2052233517

$$$$
[H]Oc1c(C([H])([H])c2c([H])c([H])c([H])c([H])c2[H])c([H])nc([H])c1C([H])([H])C([H])([H])C([H])([H])N1C(=O)N([H])C([H])([H])C1([H])[H]


 25 27  0  0  0  0  0  0  0  0999 V2000
  -88.3471   31.0246   -2.3136 C   0  0  0  0  0  0  0  0  0  0  0  0
  -89.0212   32.1756   -2.6489 C   0  0  0  0  0  0  0  0  0  0  0  0
  -89.5283   32.9533   -1.6448 O   0  0  0  0  0  0  0  0  0  0  0  0
  -89.1924   32.5556   -3.9849 C   0  0  0  0  0  0  0  0  0  0  0  0
  -88.6800   31.7693   -4.9922 C   0  0  0  0  0  0  0  0  0  0  0  0
  -88.0225   30.6456   -4.6497 N   0  0  0  0  0  0  0  0  0  0  0  0
  -87.8493   30.2647   -3.3492 C   0  0  0  0  0  0  0  0  0  0  0  0
  -90.0414   33.8224   -1.7980 H   0  0  0  0  0  0  0  0  0  0  0  0
  -88.1681   30.6273   -0.9256 C   0  0  0  0  0  0  0  0  0  0  0  0
  -86.7388   30.4570   -0.4934 C   0  0  0  0  0  0  0  0  0  0  0  0
  -86.1913   31.8688   -0.2582 C   0  0  0  0  0  0  0  0  0  0  0  0
  -84.8623   31.8713    0.2660 N   0  0  0  0  0  0  0  0  0  0  0  0
  -83.7483   32.6490   -0.1503 C   0  0  0  0  0  0  0  0  0  0  0  0
  -83.7535   33.5586   -1.0325 O   0  0  0  0  0  0  0  0  0  0  0  0
  -82.5973   32.2365    0.5968 N   0  0  0  0  0  0  0  0  0  0  0  0
  -82.9242   30.9277    1.1476 C   0  0  0  0  0  0  0  0  0  0  0  0
  -84.4035   31.0485    1.3568 C   0  0  0  0  0  0  0  0  0  0  0  0
  -81.7269   32.7695    0.7097 H   0  0  0  0  0  0  0  0  0  0  0  0
  -89.9307   33.8127   -4.3128 C   0  0  0  0  0  0  0  0  0  0  0  0
  -88.9723   34.9330   -4.4223 C   0  0  0  0  0  0  0  0  0  0  0  0
  -88.7537   35.8118   -3.3594 C   0  0  0  0  0  0  0  0  0  0  0  0
  -87.8623   36.8572   -3.4610 C   0  0  0  0  0  0  0  0  0  0  0  0
  -87.1463   37.0802   -4.6198 C   0  0  0  0  0  0  0  0  0  0  0  0
  -87.3684   36.2079   -5.6639 C   0  0  0  0  0  0  0  0  0  0  0  0
  -88.2559   35.1606   -5.5745 C   0  0  0  0  0  0  0  0  0  0  0  0
  9  1  1  0  0  0
  1  2  2  0  0  0
  2  3  1  0  0  0
  2  4  1  0  0  0
  4 19  1  0  0  0
 19 20  1  0  0  0
 20 21  2  0  0  0
 21 22  1  0  0  0
 22 23  2  0  0  0
 23 24  1  0  0  0
 24 25  2  0  0  0
  4  5  2  0  0  0
  5  6  1  0  0  0
  6  7  2  0  0  0
  9 10  1  0  0  0
 10 11  1  0  0  0
 11 12  1  0  0  0
 12 13  1  0  0  0
 13 14  2  0  0  0
 13 15  1  0  0  0
 15 16  1  0  0  0
 16 17  1  0  0  0
  7  1  1  0  0  0
 17 12  1  0  0  0
 25 20  1  0  0  0
  3  8  1  0  0  0
 15 18  1  0  0  0
M  END
> <minimizedAffinity>
-7.35208

> <CNNscore>
0.5053602457

> <CNNaffinity>
5.8432631493

> <CNN_VS>
2.9529528618

> <CNNaffinity_variance>
0.1484940946

$$$$
[H]Oc1c(C([H])([H])c2c([H])c([H])c([H])c([H])c2[H])c([H])nc([H])c1C([H])([H])C([H])([H])C([H])([H])N1C(=O)N([H])C([H])([H])C1([H])[H]


 25 27  0  0  0  0  0  0  0  0999 V2000
  -85.0991   31.1795    0.7741 C   0  0  0  0  0  0  0  0  0  0  0  0
  -85.8391   30.0874    0.3850 C   0  0  0  0  0  0  0  0  0  0  0  0
  -86.2629   30.0125   -0.9131 O   0  0  0  0  0  0  0  0  0  0  0  0
  -86.1594   29.0666    1.2873 C   0  0  0  0  0  0  0  0  0  0  0  0
  -85.7304   29.1466    2.5931 C   0  0  0  0  0  0  0  0  0  0  0  0
  -85.0071   30.2209    2.9601 N   0  0  0  0  0  0  0  0  0  0  0  0
  -84.6885   31.2233    2.0882 C   0  0  0  0  0  0  0  0  0  0  0  0
  -86.8154   29.2417   -1.2909 H   0  0  0  0  0  0  0  0  0  0  0  0
  -84.7652   32.2420   -0.1619 C   0  0  0  0  0  0  0  0  0  0  0  0
  -85.8187   33.3019   -0.3213 C   0  0  0  0  0  0  0  0  0  0  0  0
  -86.0467   33.4560   -1.8287 C   0  0  0  0  0  0  0  0  0  0  0  0
  -87.4103   33.7212   -2.1621 N   0  0  0  0  0  0  0  0  0  0  0  0
  -88.5648   32.9585   -1.8387 C   0  0  0  0  0  0  0  0  0  0  0  0
  -88.6018   31.9209   -1.1124 O   0  0  0  0  0  0  0  0  0  0  0  0
  -89.7014   33.5569   -2.4738 N   0  0  0  0  0  0  0  0  0  0  0  0
  -89.1685   34.4192   -3.5206 C   0  0  0  0  0  0  0  0  0  0  0  0
  -87.8693   34.8600   -2.9171 C   0  0  0  0  0  0  0  0  0  0  0  0
  -90.6854   33.3978   -2.2269 H   0  0  0  0  0  0  0  0  0  0  0  0
  -86.9656   27.8946    0.8301 C   0  0  0  0  0  0  0  0  0  0  0  0
  -88.3761   28.0792    1.2326 C   0  0  0  0  0  0  0  0  0  0  0  0
  -89.2558   28.8527    0.4725 C   0  0  0  0  0  0  0  0  0  0  0  0
  -90.5698   29.0269    0.8476 C   0  0  0  0  0  0  0  0  0  0  0  0
  -91.0731   28.4430    1.9925 C   0  0  0  0  0  0  0  0  0  0  0  0
  -90.1977   27.6812    2.7368 C   0  0  0  0  0  0  0  0  0  0  0  0
  -88.8837   27.5000    2.3726 C   0  0  0  0  0  0  0  0  0  0  0  0
  9  1  1  0  0  0
  1  2  2  0  0  0
  2  3  1  0  0  0
  2  4  1  0  0  0
  4 19  1  0  0  0
 19 20  1  0  0  0
 20 21  2  0  0  0
 21 22  1  0  0  0
 22 23  2  0  0  0
 23 24  1  0  0  0
 24 25  2  0  0  0
  4  5  2  0  0  0
  5  6  1  0  0  0
  6  7  2  0  0  0
  9 10  1  0  0  0
 10 11  1  0  0  0
 11 12  1  0  0  0
 12 13  1  0  0  0
 13 14  2  0  0  0
 13 15  1  0  0  0
 15 16  1  0  0  0
 16 17  1  0  0  0
  7  1  1  0  0  0
 17 12  1  0  0  0
 25 20  1  0  0  0
  3  8  1  0  0  0
 15 18  1  0  0  0
M  END
> <minimizedAffinity>
-6.89876

> <CNNscore>
0.4648881555

> <CNNaffinity>
5.9441537857

> <CNN_VS>
2.7633666992

> <CNNaffinity_variance>
0.0882607475

$$$$
[H]Oc1c(C([H])([H])c2c([H])c([H])c([H])c([H])c2[H])c([H])nc([H])c1C([H])([H])C([H])([H])C([H])([H])N1C(=O)N([H])C([H])([H])C1([H])[H]


 25 27  0  0  0  0  0  0  0  0999 V2000
  -87.1634   32.4598   -1.5451 C   0  0  0  0  0  0  0  0  0  0  0  0
  -86.2630   32.6395   -0.5211 C   0  0  0  0  0  0  0  0  0  0  0  0
  -85.7808   33.8975   -0.2867 O   0  0  0  0  0  0  0  0  0  0  0  0
  -85.8399   31.5671    0.2724 C   0  0  0  0  0  0  0  0  0  0  0  0
  -86.3283   30.3024    0.0323 C   0  0  0  0  0  0  0  0  0  0  0  0
  -87.2089   30.1410   -0.9729 N   0  0  0  0  0  0  0  0  0  0  0  0
  -87.6289   31.1802   -1.7540 C   0  0  0  0  0  0  0  0  0  0  0  0
  -85.1112   34.1255    0.4494 H   0  0  0  0  0  0  0  0  0  0  0  0
  -87.6044   33.5729   -2.3715 C   0  0  0  0  0  0  0  0  0  0  0  0
  -87.0510   33.5845   -3.7687 C   0  0  0  0  0  0  0  0  0  0  0  0
  -88.2196   33.9517   -4.6894 C   0  0  0  0  0  0  0  0  0  0  0  0
  -89.2840   32.9998   -4.6460 N   0  0  0  0  0  0  0  0  0  0  0  0
  -89.2513   31.6197   -4.9828 C   0  0  0  0  0  0  0  0  0  0  0  0
  -88.2282   30.9510   -5.3169 O   0  0  0  0  0  0  0  0  0  0  0  0
  -90.5801   31.0928   -4.8840 N   0  0  0  0  0  0  0  0  0  0  0  0
  -91.4717   32.2451   -4.9081 C   0  0  0  0  0  0  0  0  0  0  0  0
  -90.6344   33.2894   -4.2335 C   0  0  0  0  0  0  0  0  0  0  0  0
  -90.8331   30.1002   -4.8117 H   0  0  0  0  0  0  0  0  0  0  0  0
  -84.8600   31.7988    1.3764 C   0  0  0  0  0  0  0  0  0  0  0  0
  -84.2867   30.5057    1.8063 C   0  0  0  0  0  0  0  0  0  0  0  0
  -85.0437   29.5739    2.5195 C   0  0  0  0  0  0  0  0  0  0  0  0
  -84.5101   28.3694    2.9222 C   0  0  0  0  0  0  0  0  0  0  0  0
  -83.2023   28.0323    2.6370 C   0  0  0  0  0  0  0  0  0  0  0  0
  -82.4624   28.9581    1.9327 C   0  0  0  0  0  0  0  0  0  0  0  0
  -82.9841   30.1639    1.5252 C   0  0  0  0  0  0  0  0  0  0  0  0
  9  1  1  0  0  0
  1  2  2  0  0  0
  2  3  1  0  0  0
  2  4  1  0  0  0
  4 19  1  0  0  0
 19 20  1  0  0  0
 20 21  2  0  0  0
 21 22  1  0  0  0
 22 23  2  0  0  0
 23 24  1  0  0  0
 24 25  2  0  0  0
  4  5  2  0  0  0
  5  6  1  0  0  0
  6  7  2  0  0  0
  9 10  1  0  0  0
 10 11  1  0  0  0
 11 12  1  0  0  0
 12 13  1  0  0  0
 13 14  2  0  0  0
 13 15  1  0  0  0
 15 16  1  0  0  0
 16 17  1  0  0  0
  7  1  1  0  0  0
 17 12  1  0  0  0
 25 20  1  0  0  0
  3  8  1  0  0  0
 15 18  1  0  0  0
M  END
> <minimizedAffinity>
-8.59819

> <CNNscore>
0.4014975131

> <CNNaffinity>
5.7402319908

> <CNN_VS>
2.3046889305

> <CNNaffinity_variance>
0.0849182606

$$$$
[H]Oc1c(C([H])([H])c2c([H])c([H])c([H])c([H])c2[H])c([H])nc([H])c1C([H])([H])C([H])([H])C([H])([H])N1C(=O)N([H])C([H])([H])C1([H])[H]


 25 27  0  0  0  0  0  0  0  0999 V2000
  -86.5544   27.5499    1.0104 C   0  0  0  0  0  0  0  0  0  0  0  0
  -86.3713   28.8723    1.3413 C   0  0  0  0  0  0  0  0  0  0  0  0
  -87.2133   29.8049    0.8012 O   0  0  0  0  0  0  0  0  0  0  0  0
  -85.3492   29.2701    2.2106 C   0  0  0  0  0  0  0  0  0  0  0  0
  -84.5042   28.3274    2.7517 C   0  0  0  0  0  0  0  0  0  0  0  0
  -84.6949   27.0369    2.4194 N   0  0  0  0  0  0  0  0  0  0  0  0
  -85.6890   26.6370    1.5718 C   0  0  0  0  0  0  0  0  0  0  0  0
  -87.1535   30.8065    0.9891 H   0  0  0  0  0  0  0  0  0  0  0  0
  -87.6159   27.1341    0.1066 C   0  0  0  0  0  0  0  0  0  0  0  0
  -88.6365   26.2098    0.7089 C   0  0  0  0  0  0  0  0  0  0  0  0
  -89.7897   27.0984    1.1873 C   0  0  0  0  0  0  0  0  0  0  0  0
  -90.1569   26.8520    2.5457 N   0  0  0  0  0  0  0  0  0  0  0  0
  -90.8782   27.6944    3.4341 C   0  0  0  0  0  0  0  0  0  0  0  0
  -91.4052   28.8112    3.1504 O   0  0  0  0  0  0  0  0  0  0  0  0
  -90.9169   27.0725    4.7244 N   0  0  0  0  0  0  0  0  0  0  0  0
  -89.8581   26.0714    4.7195 C   0  0  0  0  0  0  0  0  0  0  0  0
  -89.8453   25.6519    3.2805 C   0  0  0  0  0  0  0  0  0  0  0  0
  -91.5671   27.3000    5.4860 H   0  0  0  0  0  0  0  0  0  0  0  0
  -85.1791   30.7158    2.5479 C   0  0  0  0  0  0  0  0  0  0  0  0
  -84.4389   31.3918    1.4613 C   0  0  0  0  0  0  0  0  0  0  0  0
  -85.0800   32.2532    0.5687 C   0  0  0  0  0  0  0  0  0  0  0  0
  -84.3916   32.8822   -0.4453 C   0  0  0  0  0  0  0  0  0  0  0  0
  -83.0366   32.6871   -0.6218 C   0  0  0  0  0  0  0  0  0  0  0  0
  -82.4119   31.8351    0.2639 C   0  0  0  0  0  0  0  0  0  0  0  0
  -83.0885   31.2014    1.2801 C   0  0  0  0  0  0  0  0  0  0  0  0
  9  1  1  0  0  0
  1  2  2  0  0  0
  2  3  1  0  0  0
  2  4  1  0  0  0
  4 19  1  0  0  0
 19 20  1  0  0  0
 20 21  2  0  0  0
 21 22  1  0  0  0
 22 23  2  0  0  0
 23 24  1  0  0  0
 24 25  2  0  0  0
  4  5  2  0  0  0
  5  6  1  0  0  0
  6  7  2  0  0  0
  9 10  1  0  0  0
 10 11  1  0  0  0
 11 12  1  0  0  0
 12 13  1  0  0  0
 13 14  2  0  0  0
 13 15  1  0  0  0
 15 16  1  0  0  0
 16 17  1  0  0  0
  7  1  1  0  0  0
 17 12  1  0  0  0
 25 20  1  0  0  0
  3  8  1  0  0  0
 15 18  1  0  0  0
M  END
> <minimizedAffinity>
-8.17803

> <CNNscore>
0.3294505775

> <CNNaffinity>
5.9178848267

> <CNN_VS>
1.9496505260

> <CNNaffinity_variance>
0.0729682446

$$$$
[H]Oc1c(C([H])([H])c2c([H])c([H])c([H])c([H])c2[H])c([H])nc([H])c1C([H])([H])C([H])([H])C([H])([H])N1C(=O)N([H])C([H])([H])C1([H])[H]


 25 27  0  0  0  0  0  0  0  0999 V2000
  -84.5934   32.5352   -0.3874 C   0  0  0  0  0  0  0  0  0  0  0  0
  -85.3446   31.6683    0.3713 C   0  0  0  0  0  0  0  0  0  0  0  0
  -86.6894   31.8915    0.4816 O   0  0  0  0  0  0  0  0  0  0  0  0
  -84.7592   30.5766    1.0226 C   0  0  0  0  0  0  0  0  0  0  0  0
  -83.4050   30.3562    0.9085 C   0  0  0  0  0  0  0  0  0  0  0  0
  -82.6819   31.2124    0.1628 N   0  0  0  0  0  0  0  0  0  0  0  0
  -83.2425   32.2813   -0.4773 C   0  0  0  0  0  0  0  0  0  0  0  0
  -87.3246   31.3026    1.0217 H   0  0  0  0  0  0  0  0  0  0  0  0
  -85.1996   33.6709   -1.0651 C   0  0  0  0  0  0  0  0  0  0  0  0
  -85.9405   33.3346   -2.3287 C   0  0  0  0  0  0  0  0  0  0  0  0
  -87.1289   34.2994   -2.3982 C   0  0  0  0  0  0  0  0  0  0  0  0
  -88.3602   33.6458   -2.7109 N   0  0  0  0  0  0  0  0  0  0  0  0
  -89.2168   32.9119   -1.8467 C   0  0  0  0  0  0  0  0  0  0  0  0
  -89.0783   32.7668   -0.5956 O   0  0  0  0  0  0  0  0  0  0  0  0
  -90.2810   32.3511   -2.6253 N   0  0  0  0  0  0  0  0  0  0  0  0
  -89.8279   32.3879   -4.0098 C   0  0  0  0  0  0  0  0  0  0  0  0
  -88.9724   33.6186   -4.0154 C   0  0  0  0  0  0  0  0  0  0  0  0
  -91.1751   31.9996   -2.2628 H   0  0  0  0  0  0  0  0  0  0  0  0
  -85.6059   29.6551    1.8391 C   0  0  0  0  0  0  0  0  0  0  0  0
  -86.2054   28.6282    0.9608 C   0  0  0  0  0  0  0  0  0  0  0  0
  -86.4807   28.8890   -0.3831 C   0  0  0  0  0  0  0  0  0  0  0  0
  -87.0409   27.9334   -1.2021 C   0  0  0  0  0  0  0  0  0  0  0  0
  -87.3543   26.6756   -0.7278 C   0  0  0  0  0  0  0  0  0  0  0  0
  -87.0792   26.4269    0.6000 C   0  0  0  0  0  0  0  0  0  0  0  0
  -86.5200   27.3729    1.4275 C   0  0  0  0  0  0  0  0  0  0  0  0
  9  1  1  0  0  0
  1  2  2  0  0  0
  2  3  1  0  0  0
  2  4  1  0  0  0
  4 19  1  0  0  0
 19 20  1  0  0  0
 20 21  2  0  0  0
 21 22  1  0  0  0
 22 23  2  0  0  0
 23 24  1  0  0  0
 24 25  2  0  0  0
  4  5  2  0  0  0
  5  6  1  0  0  0
  6  7  2  0  0  0
  9 10  1  0  0  0
 10 11  1  0  0  0
 11 12  1  0  0  0
 12 13  1  0  0  0
 13 14  2  0  0  0
 13 15  1  0  0  0
 15 16  1  0  0  0
 16 17  1  0  0  0
  7  1  1  0  0  0
 17 12  1  0  0  0
 25 20  1  0  0  0
  3  8  1  0  0  0
 15 18  1  0  0  0
M  END
> <minimizedAffinity>
-6.82403

> <CNNscore>
0.2550626099

> <CNNaffinity>
5.4598441124

> <CNN_VS>
1.3926020861

> <CNNaffinity_variance>
0.3633475900

$$$$
[H]Oc1c(C([H])([H])c2c([H])c([H])c([H])c([H])c2[H])c([H])nc([H])c1C([H])([H])C([H])([H])C([H])([H])N1C(=O)N([H])C([H])([H])C1([H])[H]


 25 27  0  0  0  0  0  0  0  0999 V2000
  -88.3810   31.1003   -2.3749 C   0  0  0  0  0  0  0  0  0  0  0  0
  -88.9841   32.2728   -2.7662 C   0  0  0  0  0  0  0  0  0  0  0  0
  -89.4631   33.1161   -1.8020 O   0  0  0  0  0  0  0  0  0  0  0  0
  -89.1122   32.6091   -4.1187 C   0  0  0  0  0  0  0  0  0  0  0  0
  -88.6283   31.7568   -5.0856 C   0  0  0  0  0  0  0  0  0  0  0  0
  -88.0404   30.6128   -4.6885 N   0  0  0  0  0  0  0  0  0  0  0  0
  -87.9099   30.2740   -3.3714 C   0  0  0  0  0  0  0  0  0  0  0  0
  -89.9242   34.0055   -1.9977 H   0  0  0  0  0  0  0  0  0  0  0  0
  -88.2470   30.7483   -0.9697 C   0  0  0  0  0  0  0  0  0  0  0  0
  -86.8345   30.5460   -0.4979 C   0  0  0  0  0  0  0  0  0  0  0  0
  -86.2490   31.9461   -0.2857 C   0  0  0  0  0  0  0  0  0  0  0  0
  -84.9291   31.9216    0.2603 N   0  0  0  0  0  0  0  0  0  0  0  0
  -83.7914   32.6725   -0.1410 C   0  0  0  0  0  0  0  0  0  0  0  0
  -83.7619   33.5777   -1.0272 O   0  0  0  0  0  0  0  0  0  0  0  0
  -82.6622   32.2382    0.6268 N   0  0  0  0  0  0  0  0  0  0  0  0
  -83.0271   30.9396    1.1779 C   0  0  0  0  0  0  0  0  0  0  0  0
  -84.5066   31.0941    1.3621 C   0  0  0  0  0  0  0  0  0  0  0  0
  -81.7822   32.7523    0.7516 H   0  0  0  0  0  0  0  0  0  0  0  0
  -89.7735   33.8913   -4.5077 C   0  0  0  0  0  0  0  0  0  0  0  0
  -90.8796   33.6102   -5.4475 C   0  0  0  0  0  0  0  0  0  0  0  0
  -90.8773   34.1173   -6.7486 C   0  0  0  0  0  0  0  0  0  0  0  0
  -91.9083   33.8575   -7.6245 C   0  0  0  0  0  0  0  0  0  0  0  0
  -92.9889   33.0836   -7.2523 C   0  0  0  0  0  0  0  0  0  0  0  0
  -92.9829   32.5872   -5.9662 C   0  0  0  0  0  0  0  0  0  0  0  0
  -91.9593   32.8397   -5.0825 C   0  0  0  0  0  0  0  0  0  0  0  0
  9  1  1  0  0  0
  1  2  2  0  0  0
  2  3  1  0  0  0
  2  4  1  0  0  0
  4 19  1  0  0  0
 19 20  1  0  0  0
 20 21  2  0  0  0
 21 22  1  0  0  0
 22 23  2  0  0  0
 23 24  1  0  0  0
 24 25  2  0  0  0
  4  5  2  0  0  0
  5  6  1  0  0  0
  6  7  2  0  0  0
  9 10  1  0  0  0
 10 11  1  0  0  0
 11 12  1  0  0  0
 12 13  1  0  0  0
 13 14  2  0  0  0
 13 15  1  0  0  0
 15 16  1  0  0  0
 16 17  1  0  0  0
  7  1  1  0  0  0
 17 12  1  0  0  0
 25 20  1  0  0  0
  3  8  1  0  0  0
 15 18  1  0  0  0
M  END
> <minimizedAffinity>
-6.84363

> <CNNscore>
0.2505849004

> <CNNaffinity>
5.2779822350

> <CNN_VS>
1.3225826025

> <CNNaffinity_variance>
0.1112133861

$$$$
[H]Oc1c(C([H])([H])c2c([H])c([H])c([H])c([H])c2[H])c([H])nc([H])c1C([H])([H])C([H])([H])C([H])([H])N1C(=O)N([H])C([H])([H])C1([H])[H]


 25 27  0  0  0  0  0  0  0  0999 V2000
  -88.9863   29.6898   -1.5578 C   0  0  0  0  0  0  0  0  0  0  0  0
  -88.2022   30.4717   -0.7421 C   0  0  0  0  0  0  0  0  0  0  0  0
  -88.7300   31.6296   -0.2410 O   0  0  0  0  0  0  0  0  0  0  0  0
  -86.8903   30.1033   -0.4229 C   0  0  0  0  0  0  0  0  0  0  0  0
  -86.3635   28.9367   -0.9299 C   0  0  0  0  0  0  0  0  0  0  0  0
  -87.1420   28.1810   -1.7268 N   0  0  0  0  0  0  0  0  0  0  0  0
  -88.4237   28.5306   -2.0452 C   0  0  0  0  0  0  0  0  0  0  0  0
  -88.2240   32.2711    0.3709 H   0  0  0  0  0  0  0  0  0  0  0  0
  -90.3501   30.0708   -1.8913 C   0  0  0  0  0  0  0  0  0  0  0  0
  -90.6337   30.1920   -3.3621 C   0  0  0  0  0  0  0  0  0  0  0  0
  -90.6910   31.6931   -3.6651 C   0  0  0  0  0  0  0  0  0  0  0  0
  -89.3977   32.2917   -3.7642 N   0  0  0  0  0  0  0  0  0  0  0  0
  -88.2811   31.8639   -4.5320 C   0  0  0  0  0  0  0  0  0  0  0  0
  -88.2557   30.8939   -5.3469 O   0  0  0  0  0  0  0  0  0  0  0  0
  -87.1681   32.7162   -4.2353 N   0  0  0  0  0  0  0  0  0  0  0  0
  -87.4936   33.3787   -2.9790 C   0  0  0  0  0  0  0  0  0  0  0  0
  -88.9857   33.4867   -3.0717 C   0  0  0  0  0  0  0  0  0  0  0  0
  -86.3209   32.8247   -4.8053 H   0  0  0  0  0  0  0  0  0  0  0  0
  -86.0668   30.9774    0.4663 C   0  0  0  0  0  0  0  0  0  0  0  0
  -85.0263   30.1640    1.1307 C   0  0  0  0  0  0  0  0  0  0  0  0
  -85.3586   29.0800    1.9458 C   0  0  0  0  0  0  0  0  0  0  0  0
  -84.3900   28.3225    2.5669 C   0  0  0  0  0  0  0  0  0  0  0  0
  -83.0479   28.6037    2.4092 C   0  0  0  0  0  0  0  0  0  0  0  0
  -82.7291   29.6755    1.6029 C   0  0  0  0  0  0  0  0  0  0  0  0
  -83.6872   30.4392    0.9776 C   0  0  0  0  0  0  0  0  0  0  0  0
  9  1  1  0  0  0
  1  2  2  0  0  0
  2  3  1  0  0  0
  2  4  1  0  0  0
  4 19  1  0  0  0
 19 20  1  0  0  0
 20 21  2  0  0  0
 21 22  1  0  0  0
 22 23  2  0  0  0
 23 24  1  0  0  0
 24 25  2  0  0  0
  4  5  2  0  0  0
  5  6  1  0  0  0
  6  7  2  0  0  0
  9 10  1  0  0  0
 10 11  1  0  0  0
 11 12  1  0  0  0
 12 13  1  0  0  0
 13 14  2  0  0  0
 13 15  1  0  0  0
 15 16  1  0  0  0
 16 17  1  0  0  0
  7  1  1  0  0  0
 17 12  1  0  0  0
 25 20  1  0  0  0
  3  8  1  0  0  0
 15 18  1  0  0  0
M  END
> <minimizedAffinity>
-8.02900

> <CNNscore>
0.2407694161

> <CNNaffinity>
5.4524879456

> <CNN_VS>
1.3127923012

> <CNNaffinity_variance>
0.3178860545

$$$$
[H]OC(=O)[C@@]([H])(N([H])C(=O)[C@@]([H])(N([H])[H])C([H])([H])C([H])([H])N=C(N([H])[H])N([H])[H])C([H])([H])c1c([H])c([H])c(O[H])c([H])c1[H]


 32 32  0  0  0  0  0  0  0  0999 V2000
  -87.5959   28.5790   -0.7682 C   0  0  0  0  0  0  0  0  0  0  0  0
  -86.6034   28.8345   -1.4734 O   0  0  0  0  0  0  0  0  0  0  0  0
  -87.4162   28.2878    0.6067 N   0  0  0  0  0  0  0  0  0  0  0  0
  -88.2226   28.0711    1.2203 H   0  0  0  0  0  0  0  0  0  0  0  0
  -89.5462   27.2116   -1.1853 N   0  0  0  0  0  0  0  0  0  0  0  0
  -88.9910   28.5708   -1.3406 C   0  0  0  0  0  0  0  0  0  0  0  0
  -89.2998   26.6207   -2.0107 H   0  0  0  0  0  0  0  0  0  0  0  0
  -90.5777   27.2896   -1.0331 H   0  0  0  0  0  0  0  0  0  0  0  0
  -89.8869   29.5608   -0.6386 C   0  0  0  0  0  0  0  0  0  0  0  0
  -91.2162   28.9698   -0.3249 C   0  0  0  0  0  0  0  0  0  0  0  0
  -92.2505   29.3511   -1.2454 N   0  0  0  0  0  0  0  0  0  0  0  0
  -92.7720   28.6104   -2.1291 C   0  0  0  0  0  0  0  0  0  0  0  0
  -93.7856   29.1121   -2.9735 N   0  0  0  0  0  0  0  0  0  0  0  0
  -92.3458   27.2742   -2.2799 N   0  0  0  0  0  0  0  0  0  0  0  0
  -94.7577   28.6984   -2.9454 H   0  0  0  0  0  0  0  0  0  0  0  0
  -93.6131   29.8917   -3.6397 H   0  0  0  0  0  0  0  0  0  0  0  0
  -91.9065   26.9695   -3.1870 H   0  0  0  0  0  0  0  0  0  0  0  0
  -92.4316   26.5401   -1.5471 H   0  0  0  0  0  0  0  0  0  0  0  0
  -86.0494   28.2997    1.1497 C   0  0  0  0  0  0  0  0  0  0  0  0
  -85.8988   27.0309    1.8709 C   0  0  0  0  0  0  0  0  0  0  0  0
  -86.9436   26.1589    2.0737 O   0  0  0  0  0  0  0  0  0  0  0  0
  -84.7772   26.6503    2.3653 O   0  0  0  0  0  0  0  0  0  0  0  0
  -86.8399   25.1475    2.0307 H   0  0  0  0  0  0  0  0  0  0  0  0
  -85.8700   29.5370    1.9788 C   0  0  0  0  0  0  0  0  0  0  0  0
  -85.0071   30.5592    1.3580 C   0  0  0  0  0  0  0  0  0  0  0  0
  -85.5166   31.5891    0.5715 C   0  0  0  0  0  0  0  0  0  0  0  0
  -84.7186   32.5432   -0.0089 C   0  0  0  0  0  0  0  0  0  0  0  0
  -83.3664   32.4798    0.1940 C   0  0  0  0  0  0  0  0  0  0  0  0
  -82.5321   33.4417   -0.3875 O   0  0  0  0  0  0  0  0  0  0  0  0
  -82.8431   31.4636    0.9724 C   0  0  0  0  0  0  0  0  0  0  0  0
  -83.6218   30.5155    1.5507 C   0  0  0  0  0  0  0  0  0  0  0  0
  -82.9154   34.1695   -0.9461 H   0  0  0  0  0  0  0  0  0  0  0  0
  5  6  1  0  0  0
  6  9  1  0  0  0
  9 10  1  0  0  0
 10 11  1  0  0  0
 11 12  2  0  0  0
 12 13  1  0  0  0
 12 14  1  0  0  0
  6  1  1  0  0  0
  1  2  2  0  0  0
  1  3  1  0  0  0
  3 19  1  0  0  0
 19 24  1  0  0  0
 24 25  1  0  0  0
 25 26  2  0  0  0
 26 27  1  0  0  0
 27 28  2  0  0  0
 28 29  1  0  0  0
 28 30  1  0  0  0
 30 31  2  0  0  0
 19 20  1  0  0  0
 20 21  1  0  0  0
 20 22  2  0  0  0
 31 25  1  0  0  0
  5  7  1  0  0  0
  5  8  1  0  0  0
 13 15  1  0  0  0
 13 16  1  0  0  0
 14 17  1  0  0  0
 14 18  1  0  0  0
  3  4  1  0  0  0
 29 32  1  0  0  0
 21 23  1  0  0  0
M  END
> <minimizedAffinity>
-6.63382

> <CNNscore>
0.6356411576

> <CNNaffinity>
5.3708448410

> <CNN_VS>
3.4139299393

> <CNNaffinity_variance>
0.1820888817

$$$$
[H]OC(=O)[C@@]([H])(N([H])C(=O)[C@@]([H])(N([H])[H])C([H])([H])C([H])([H])N=C(N([H])[H])N([H])[H])C([H])([H])c1c([H])c([H])c(O[H])c([H])c1[H]


 32 32  0  0  0  0  0  0  0  0999 V2000
  -87.6242   28.5928   -1.0036 C   0  0  0  0  0  0  0  0  0  0  0  0
  -86.5689   28.7243   -1.6491 O   0  0  0  0  0  0  0  0  0  0  0  0
  -87.5608   28.3226    0.3858 N   0  0  0  0  0  0  0  0  0  0  0  0
  -88.4217   28.2078    0.9510 H   0  0  0  0  0  0  0  0  0  0  0  0
  -89.0130   27.7849   -2.8107 N   0  0  0  0  0  0  0  0  0  0  0  0
  -88.9746   28.7137   -1.6637 C   0  0  0  0  0  0  0  0  0  0  0  0
  -88.6496   28.2528   -3.6709 H   0  0  0  0  0  0  0  0  0  0  0  0
  -89.9916   27.4331   -2.9205 H   0  0  0  0  0  0  0  0  0  0  0  0
  -90.0932   28.3772   -0.7092 C   0  0  0  0  0  0  0  0  0  0  0  0
  -90.6552   27.0257   -0.9788 C   0  0  0  0  0  0  0  0  0  0  0  0
  -90.0185   25.9755   -0.2345 N   0  0  0  0  0  0  0  0  0  0  0  0
  -89.3906   24.9911   -0.7224 C   0  0  0  0  0  0  0  0  0  0  0  0
  -88.8088   24.0244    0.1256 N   0  0  0  0  0  0  0  0  0  0  0  0
  -89.2652   24.8490   -2.1202 N   0  0  0  0  0  0  0  0  0  0  0  0
  -87.7611   23.8856    0.1377 H   0  0  0  0  0  0  0  0  0  0  0  0
  -89.3810   23.4271    0.7558 H   0  0  0  0  0  0  0  0  0  0  0  0
  -89.6829   24.0073   -2.5952 H   0  0  0  0  0  0  0  0  0  0  0  0
  -88.7790   25.5274   -2.7420 H   0  0  0  0  0  0  0  0  0  0  0  0
  -86.2364   28.2075    1.0147 C   0  0  0  0  0  0  0  0  0  0  0  0
  -86.2344   26.9099    1.6993 C   0  0  0  0  0  0  0  0  0  0  0  0
  -87.3367   26.0875    1.7436 O   0  0  0  0  0  0  0  0  0  0  0  0
  -85.1998   26.4553    2.3076 O   0  0  0  0  0  0  0  0  0  0  0  0
  -87.2773   25.0740    1.6742 H   0  0  0  0  0  0  0  0  0  0  0  0
  -86.0151   29.4011    1.8962 C   0  0  0  0  0  0  0  0  0  0  0  0
  -85.1100   30.4146    1.3232 C   0  0  0  0  0  0  0  0  0  0  0  0
  -83.7325   30.3850    1.5244 C   0  0  0  0  0  0  0  0  0  0  0  0
  -82.8851   31.3253    0.9937 C   0  0  0  0  0  0  0  0  0  0  0  0
  -83.4160   32.3336    0.2353 C   0  0  0  0  0  0  0  0  0  0  0  0
  -82.5719   33.3043   -0.3166 O   0  0  0  0  0  0  0  0  0  0  0  0
  -84.7821   32.3786    0.0251 C   0  0  0  0  0  0  0  0  0  0  0  0
  -85.6288   31.4550    0.5445 C   0  0  0  0  0  0  0  0  0  0  0  0
  -81.5905   33.2656   -0.1613 H   0  0  0  0  0  0  0  0  0  0  0  0
  5  6  1  0  0  0
  6  9  1  0  0  0
  9 10  1  0  0  0
 10 11  1  0  0  0
 11 12  2  0  0  0
 12 13  1  0  0  0
 12 14  1  0  0  0
  6  1  1  0  0  0
  1  2  2  0  0  0
  1  3  1  0  0  0
  3 19  1  0  0  0
 19 24  1  0  0  0
 24 25  1  0  0  0
 25 26  2  0  0  0
 26 27  1  0  0  0
 27 28  2  0  0  0
 28 29  1  0  0  0
 28 30  1  0  0  0
 30 31  2  0  0  0
 19 20  1  0  0  0
 20 21  1  0  0  0
 20 22  2  0  0  0
 31 25  1  0  0  0
  5  7  1  0  0  0
  5  8  1  0  0  0
 13 15  1  0  0  0
 13 16  1  0  0  0
 14 17  1  0  0  0
 14 18  1  0  0  0
  3  4  1  0  0  0
 29 32  1  0  0  0
 21 23  1  0  0  0
M  END
> <minimizedAffinity>
-7.49401

> <CNNscore>
0.3557486236

> <CNNaffinity>
5.3415861130

> <CNN_VS>
1.9002618790

> <CNNaffinity_variance>
0.1328813136

$$$$
[H]OC(=O)[C@@]([H])(N([H])C(=O)[C@@]([H])(N([H])[H])C([H])([H])C([H])([H])N=C(N([H])[H])N([H])[H])C([H])([H])c1c([H])c([H])c(O[H])c([H])c1[H]


 32 32  0  0  0  0  0  0  0  0999 V2000
  -88.6122   29.7417   -2.5571 C   0  0  0  0  0  0  0  0  0  0  0  0
  -87.7884   29.3204   -3.3888 O   0  0  0  0  0  0  0  0  0  0  0  0
  -88.3762   29.5312   -1.1760 N   0  0  0  0  0  0  0  0  0  0  0  0
  -89.0431   29.8698   -0.4589 H   0  0  0  0  0  0  0  0  0  0  0  0
  -91.0270   29.7543   -2.4325 N   0  0  0  0  0  0  0  0  0  0  0  0
  -89.8604   30.4733   -2.9820 C   0  0  0  0  0  0  0  0  0  0  0  0
  -91.3432   29.0120   -3.0959 H   0  0  0  0  0  0  0  0  0  0  0  0
  -91.7747   30.4520   -2.2148 H   0  0  0  0  0  0  0  0  0  0  0  0
  -89.8689   31.8968   -2.4827 C   0  0  0  0  0  0  0  0  0  0  0  0
  -88.5534   32.5595   -2.6952 C   0  0  0  0  0  0  0  0  0  0  0  0
  -88.6352   33.9899   -2.7917 N   0  0  0  0  0  0  0  0  0  0  0  0
  -87.7058   34.7667   -3.1582 C   0  0  0  0  0  0  0  0  0  0  0  0
  -87.9192   36.1609   -3.2092 N   0  0  0  0  0  0  0  0  0  0  0  0
  -86.4452   34.2472   -3.5200 N   0  0  0  0  0  0  0  0  0  0  0  0
  -87.8647   36.6764   -4.1302 H   0  0  0  0  0  0  0  0  0  0  0  0
  -88.1337   36.7179   -2.3576 H   0  0  0  0  0  0  0  0  0  0  0  0
  -85.5936   34.5183   -2.9633 H   0  0  0  0  0  0  0  0  0  0  0  0
  -86.2800   33.5977   -4.3163 H   0  0  0  0  0  0  0  0  0  0  0  0
  -87.1544   28.8159   -0.7778 C   0  0  0  0  0  0  0  0  0  0  0  0
  -87.5364   27.4025   -0.6820 C   0  0  0  0  0  0  0  0  0  0  0  0
  -87.6506   26.5838   -1.7819 O   0  0  0  0  0  0  0  0  0  0  0  0
  -87.7933   26.8345    0.4400 O   0  0  0  0  0  0  0  0  0  0  0  0
  -87.3605   25.6084   -1.7815 H   0  0  0  0  0  0  0  0  0  0  0  0
  -86.6270   29.4276    0.4864 C   0  0  0  0  0  0  0  0  0  0  0  0
  -85.6305   30.4931    0.2708 C   0  0  0  0  0  0  0  0  0  0  0  0
  -85.9897   31.7914   -0.0816 C   0  0  0  0  0  0  0  0  0  0  0  0
  -85.0670   32.7873   -0.2836 C   0  0  0  0  0  0  0  0  0  0  0  0
  -83.7390   32.4920   -0.1321 C   0  0  0  0  0  0  0  0  0  0  0  0
  -82.7792   33.4910   -0.3326 O   0  0  0  0  0  0  0  0  0  0  0  0
  -83.3642   31.2076    0.2177 C   0  0  0  0  0  0  0  0  0  0  0  0
  -84.2671   30.2158    0.4197 C   0  0  0  0  0  0  0  0  0  0  0  0
  -83.0561   34.4123   -0.5840 H   0  0  0  0  0  0  0  0  0  0  0  0
  5  6  1  0  0  0
  6  9  1  0  0  0
  9 10  1  0  0  0
 10 11  1  0  0  0
 11 12  2  0  0  0
 12 13  1  0  0  0
 12 14  1  0  0  0
  6  1  1  0  0  0
  1  2  2  0  0  0
  1  3  1  0  0  0
  3 19  1  0  0  0
 19 24  1  0  0  0
 24 25  1  0  0  0
 25 26  2  0  0  0
 26 27  1  0  0  0
 27 28  2  0  0  0
 28 29  1  0  0  0
 28 30  1  0  0  0
 30 31  2  0  0  0
 19 20  1  0  0  0
 20 21  1  0  0  0
 20 22  2  0  0  0
 31 25  1  0  0  0
  5  7  1  0  0  0
  5  8  1  0  0  0
 13 15  1  0  0  0
 13 16  1  0  0  0
 14 17  1  0  0  0
 14 18  1  0  0  0
  3  4  1  0  0  0
 29 32  1  0  0  0
 21 23  1  0  0  0
M  END
> <minimizedAffinity>
-7.04434

> <CNNscore>
0.3115916252

> <CNNaffinity>
5.0680069923

> <CNN_VS>
1.5791485310

> <CNNaffinity_variance>
0.1876146197

$$$$
[H]OC(=O)[C@@]([H])(N([H])C(=O)[C@@]([H])(N([H])[H])C([H])([H])C([H])([H])N=C(N([H])[H])N([H])[H])C([H])([H])c1c([H])c([H])c(O[H])c([H])c1[H]


 32 32  0  0  0  0  0  0  0  0999 V2000
  -88.6065   30.9415   -4.1826 C   0  0  0  0  0  0  0  0  0  0  0  0
  -87.5908   30.4359   -4.6927 O   0  0  0  0  0  0  0  0  0  0  0  0
  -88.8131   30.8284   -2.7854 N   0  0  0  0  0  0  0  0  0  0  0  0
  -89.6490   31.2386   -2.3307 H   0  0  0  0  0  0  0  0  0  0  0  0
  -90.8829   30.8966   -4.9970 N   0  0  0  0  0  0  0  0  0  0  0  0
  -89.6280   31.6742   -5.0154 C   0  0  0  0  0  0  0  0  0  0  0  0
  -90.8876   30.1939   -5.7699 H   0  0  0  0  0  0  0  0  0  0  0  0
  -91.6871   31.5629   -5.0470 H   0  0  0  0  0  0  0  0  0  0  0  0
  -89.8903   33.0607   -4.4823 C   0  0  0  0  0  0  0  0  0  0  0  0
  -89.0212   34.0739   -5.1404 C   0  0  0  0  0  0  0  0  0  0  0  0
  -88.9137   35.3057   -4.4100 N   0  0  0  0  0  0  0  0  0  0  0  0
  -87.8602   35.7726   -3.8870 C   0  0  0  0  0  0  0  0  0  0  0  0
  -87.8920   37.0009   -3.1925 N   0  0  0  0  0  0  0  0  0  0  0  0
  -86.6415   35.0700   -3.9924 N   0  0  0  0  0  0  0  0  0  0  0  0
  -87.3355   37.8278   -3.5439 H   0  0  0  0  0  0  0  0  0  0  0  0
  -88.4540   37.1313   -2.3274 H   0  0  0  0  0  0  0  0  0  0  0  0
  -86.1647   34.7253   -3.1192 H   0  0  0  0  0  0  0  0  0  0  0  0
  -86.1580   34.8566   -4.8890 H   0  0  0  0  0  0  0  0  0  0  0  0
  -87.8079   30.1107   -1.9871 C   0  0  0  0  0  0  0  0  0  0  0  0
  -88.2915   28.7289   -1.8909 C   0  0  0  0  0  0  0  0  0  0  0  0
  -88.2715   27.8553   -2.9537 O   0  0  0  0  0  0  0  0  0  0  0  0
  -88.7703   28.2423   -0.8040 O   0  0  0  0  0  0  0  0  0  0  0  0
  -88.0496   26.8669   -2.8568 H   0  0  0  0  0  0  0  0  0  0  0  0
  -87.6313   30.8237   -0.6790 C   0  0  0  0  0  0  0  0  0  0  0  0
  -86.3387   31.5202   -0.5415 C   0  0  0  0  0  0  0  0  0  0  0  0
  -85.2828   30.9957    0.1993 C   0  0  0  0  0  0  0  0  0  0  0  0
  -84.0775   31.6391    0.3310 C   0  0  0  0  0  0  0  0  0  0  0  0
  -83.9065   32.8460   -0.2917 C   0  0  0  0  0  0  0  0  0  0  0  0
  -82.6862   33.5213   -0.1722 O   0  0  0  0  0  0  0  0  0  0  0  0
  -84.9446   33.3820   -1.0316 C   0  0  0  0  0  0  0  0  0  0  0  0
  -86.1397   32.7552   -1.1686 C   0  0  0  0  0  0  0  0  0  0  0  0
  -81.9442   33.1299    0.3615 H   0  0  0  0  0  0  0  0  0  0  0  0
  5  6  1  0  0  0
  6  9  1  0  0  0
  9 10  1  0  0  0
 10 11  1  0  0  0
 11 12  2  0  0  0
 12 13  1  0  0  0
 12 14  1  0  0  0
  6  1  1  0  0  0
  1  2  2  0  0  0
  1  3  1  0  0  0
  3 19  1  0  0  0
 19 24  1  0  0  0
 24 25  1  0  0  0
 25 26  2  0  0  0
 26 27  1  0  0  0
 27 28  2  0  0  0
 28 29  1  0  0  0
 28 30  1  0  0  0
 30 31  2  0  0  0
 19 20  1  0  0  0
 20 21  1  0  0  0
 20 22  2  0  0  0
 31 25  1  0  0  0
  5  7  1  0  0  0
  5  8  1  0  0  0
 13 15  1  0  0  0
 13 16  1  0  0  0
 14 17  1  0  0  0
 14 18  1  0  0  0
  3  4  1  0  0  0
 29 32  1  0  0  0
 21 23  1  0  0  0
M  END
> <minimizedAffinity>
-7.04804

> <CNNscore>
0.3047653139

> <CNNaffinity>
4.7738618851

> <CNN_VS>
1.4549075365

> <CNNaffinity_variance>
0.2442037314

$$$$
[H]OC(=O)[C@@]([H])(N([H])C(=O)[C@@]([H])(N([H])[H])C([H])([H])C([H])([H])N=C(N([H])[H])N([H])[H])C([H])([H])c1c([H])c([H])c(O[H])c([H])c1[H]


 32 32  0  0  0  0  0  0  0  0999 V2000
  -86.6981   27.3100    1.2411 C   0  0  0  0  0  0  0  0  0  0  0  0
  -86.6980   27.9890    0.1987 O   0  0  0  0  0  0  0  0  0  0  0  0
  -85.6399   27.4625    2.1709 N   0  0  0  0  0  0  0  0  0  0  0  0
  -85.6114   26.9116    3.0481 H   0  0  0  0  0  0  0  0  0  0  0  0
  -88.4985   26.7726    2.7632 N   0  0  0  0  0  0  0  0  0  0  0  0
  -87.7992   26.3249    1.5424 C   0  0  0  0  0  0  0  0  0  0  0  0
  -88.0357   26.3797    3.6132 H   0  0  0  0  0  0  0  0  0  0  0  0
  -89.5060   26.5035    2.6864 H   0  0  0  0  0  0  0  0  0  0  0  0
  -88.7870   26.2288    0.4063 C   0  0  0  0  0  0  0  0  0  0  0  0
  -89.4836   24.9137    0.3960 C   0  0  0  0  0  0  0  0  0  0  0  0
  -90.3251   24.6959    1.5390 N   0  0  0  0  0  0  0  0  0  0  0  0
  -90.5541   23.5823    2.0948 C   0  0  0  0  0  0  0  0  0  0  0  0
  -91.4056   23.5067    3.2178 N   0  0  0  0  0  0  0  0  0  0  0  0
  -89.9604   22.4033    1.5975 N   0  0  0  0  0  0  0  0  0  0  0  0
  -91.0297   23.1878    4.1527 H   0  0  0  0  0  0  0  0  0  0  0  0
  -92.4133   23.7579    3.1642 H   0  0  0  0  0  0  0  0  0  0  0  0
  -90.5728   21.6295    1.2305 H   0  0  0  0  0  0  0  0  0  0  0  0
  -88.9351   22.2277    1.5614 H   0  0  0  0  0  0  0  0  0  0  0  0
  -84.5735   28.4272    1.8625 C   0  0  0  0  0  0  0  0  0  0  0  0
  -83.3601   27.8896    2.4880 C   0  0  0  0  0  0  0  0  0  0  0  0
  -83.3703   26.7873    3.3114 O   0  0  0  0  0  0  0  0  0  0  0  0
  -82.2035   28.4167    2.3096 O   0  0  0  0  0  0  0  0  0  0  0  0
  -82.6352   26.0837    3.3075 H   0  0  0  0  0  0  0  0  0  0  0  0
  -84.9973   29.7846    2.3405 C   0  0  0  0  0  0  0  0  0  0  0  0
  -84.7531   30.8688    1.3711 C   0  0  0  0  0  0  0  0  0  0  0  0
  -85.7654   31.4044    0.5790 C   0  0  0  0  0  0  0  0  0  0  0  0
  -85.5443   32.4134   -0.3248 C   0  0  0  0  0  0  0  0  0  0  0  0
  -84.2767   32.9138   -0.4528 C   0  0  0  0  0  0  0  0  0  0  0  0
  -84.0266   33.9431   -1.3678 O   0  0  0  0  0  0  0  0  0  0  0  0
  -83.2591   32.3937    0.3260 C   0  0  0  0  0  0  0  0  0  0  0  0
  -83.4659   31.3968    1.2221 C   0  0  0  0  0  0  0  0  0  0  0  0
  -84.7632   34.3122   -1.9245 H   0  0  0  0  0  0  0  0  0  0  0  0
  5  6  1  0  0  0
  6  9  1  0  0  0
  9 10  1  0  0  0
 10 11  1  0  0  0
 11 12  2  0  0  0
 12 13  1  0  0  0
 12 14  1  0  0  0
  6  1  1  0  0  0
  1  2  2  0  0  0
  1  3  1  0  0  0
  3 19  1  0  0  0
 19 24  1  0  0  0
 24 25  1  0  0  0
 25 26  2  0  0  0
 26 27  1  0  0  0
 27 28  2  0  0  0
 28 29  1  0  0  0
 28 30  1  0  0  0
 30 31  2  0  0  0
 19 20  1  0  0  0
 20 21  1  0  0  0
 20 22  2  0  0  0
 31 25  1  0  0  0
  5  7  1  0  0  0
  5  8  1  0  0  0
 13 15  1  0  0  0
 13 16  1  0  0  0
 14 17  1  0  0  0
 14 18  1  0  0  0
  3  4  1  0  0  0
 29 32  1  0  0  0
 21 23  1  0  0  0
M  END
> <minimizedAffinity>
-7.61199

> <CNNscore>
0.2803362310

> <CNNaffinity>
5.2876677513

> <CNN_VS>
1.4823248386

> <CNNaffinity_variance>
0.0027660974

$$$$
[H]OC(=O)[C@@]([H])(N([H])C(=O)[C@@]([H])(N([H])[H])C([H])([H])C([H])([H])N=C(N([H])[H])N([H])[H])C([H])([H])c1c([H])c([H])c(O[H])c([H])c1[H]


 32 32  0  0  0  0  0  0  0  0999 V2000
  -85.2908   28.6967    2.2496 C   0  0  0  0  0  0  0  0  0  0  0  0
  -85.8809   29.7876    2.3472 O   0  0  0  0  0  0  0  0  0  0  0  0
  -85.9152   27.6273    1.5611 N   0  0  0  0  0  0  0  0  0  0  0  0
  -85.4498   26.7067    1.4626 H   0  0  0  0  0  0  0  0  0  0  0  0
  -83.6509   27.0308    2.8679 N   0  0  0  0  0  0  0  0  0  0  0  0
  -83.9232   28.4817    2.8471 C   0  0  0  0  0  0  0  0  0  0  0  0
  -84.0069   26.6058    3.7532 H   0  0  0  0  0  0  0  0  0  0  0  0
  -82.6252   26.8834    2.7285 H   0  0  0  0  0  0  0  0  0  0  0  0
  -82.8506   29.1811    2.0495 C   0  0  0  0  0  0  0  0  0  0  0  0
  -83.3937   29.7588    0.7901 C   0  0  0  0  0  0  0  0  0  0  0  0
  -82.8313   31.0356    0.4499 N   0  0  0  0  0  0  0  0  0  0  0  0
  -83.4703   32.1196    0.3152 C   0  0  0  0  0  0  0  0  0  0  0  0
  -82.7924   33.3104   -0.0232 N   0  0  0  0  0  0  0  0  0  0  0  0
  -84.8681   32.1497    0.5020 N   0  0  0  0  0  0  0  0  0  0  0  0
  -82.7813   34.1277    0.6468 H   0  0  0  0  0  0  0  0  0  0  0  0
  -82.2901   33.4217   -0.9269 H   0  0  0  0  0  0  0  0  0  0  0  0
  -85.4929   32.4177   -0.3019 H   0  0  0  0  0  0  0  0  0  0  0  0
  -85.3500   31.9221    1.3961 H   0  0  0  0  0  0  0  0  0  0  0  0
  -87.2490   27.8528    0.9841 C   0  0  0  0  0  0  0  0  0  0  0  0
  -88.1135   26.8222    1.5702 C   0  0  0  0  0  0  0  0  0  0  0  0
  -87.6723   25.9291    2.5192 O   0  0  0  0  0  0  0  0  0  0  0  0
  -89.3438   26.6835    1.2322 O   0  0  0  0  0  0  0  0  0  0  0  0
  -88.2437   25.6245    3.3043 H   0  0  0  0  0  0  0  0  0  0  0  0
  -87.1388   27.8265   -0.5118 C   0  0  0  0  0  0  0  0  0  0  0  0
  -87.5752   29.0716   -1.1707 C   0  0  0  0  0  0  0  0  0  0  0  0
  -87.7321   29.1709   -2.5507 C   0  0  0  0  0  0  0  0  0  0  0  0
  -88.1379   30.3268   -3.1697 C   0  0  0  0  0  0  0  0  0  0  0  0
  -88.3992   31.4272   -2.3986 C   0  0  0  0  0  0  0  0  0  0  0  0
  -88.8145   32.6175   -3.0070 O   0  0  0  0  0  0  0  0  0  0  0  0
  -88.2485   31.3465   -1.0263 C   0  0  0  0  0  0  0  0  0  0  0  0
  -87.8482   30.2098   -0.4040 C   0  0  0  0  0  0  0  0  0  0  0  0
  -88.9206   32.6681   -3.9943 H   0  0  0  0  0  0  0  0  0  0  0  0
  5  6  1  0  0  0
  6  9  1  0  0  0
  9 10  1  0  0  0
 10 11  1  0  0  0
 11 12  2  0  0  0
 12 13  1  0  0  0
 12 14  1  0  0  0
  6  1  1  0  0  0
  1  2  2  0  0  0
  1  3  1  0  0  0
  3 19  1  0  0  0
 19 24  1  0  0  0
 24 25  1  0  0  0
 25 26  2  0  0  0
 26 27  1  0  0  0
 27 28  2  0  0  0
 28 29  1  0  0  0
 28 30  1  0  0  0
 30 31  2  0  0  0
 19 20  1  0  0  0
 20 21  1  0  0  0
 20 22  2  0  0  0
 31 25  1  0  0  0
  5  7  1  0  0  0
  5  8  1  0  0  0
 13 15  1  0  0  0
 13 16  1  0  0  0
 14 17  1  0  0  0
 14 18  1  0  0  0
  3  4  1  0  0  0
 29 32  1  0  0  0
 21 23  1  0  0  0
M  END
> <minimizedAffinity>
-6.76127

> <CNNscore>
0.2588342428

> <CNNaffinity>
5.4935503006

> <CNN_VS>
1.4219189882

> <CNNaffinity_variance>
0.0668688267

$$$$
[H]OC(=O)[C@@]([H])(N([H])C(=O)[C@@]([H])(N([H])[H])C([H])([H])C([H])([H])N=C(N([H])[H])N([H])[H])C([H])([H])c1c([H])c([H])c(O[H])c([H])c1[H]


 32 32  0  0  0  0  0  0  0  0999 V2000
  -88.5509   34.2222   -3.8146 C   0  0  0  0  0  0  0  0  0  0  0  0
  -87.5637   33.8708   -4.4851 O   0  0  0  0  0  0  0  0  0  0  0  0
  -88.9336   33.4562   -2.6857 N   0  0  0  0  0  0  0  0  0  0  0  0
  -89.7508   33.7228   -2.1071 H   0  0  0  0  0  0  0  0  0  0  0  0
  -90.7550   35.2156   -3.7674 N   0  0  0  0  0  0  0  0  0  0  0  0
  -89.3544   35.4468   -4.1732 C   0  0  0  0  0  0  0  0  0  0  0  0
  -91.2857   34.7509   -4.5377 H   0  0  0  0  0  0  0  0  0  0  0  0
  -91.1723   36.1298   -3.4786 H   0  0  0  0  0  0  0  0  0  0  0  0
  -88.8295   36.6799   -3.4807 C   0  0  0  0  0  0  0  0  0  0  0  0
  -88.3701   37.7034   -4.4585 C   0  0  0  0  0  0  0  0  0  0  0  0
  -86.9699   38.0075   -4.3626 N   0  0  0  0  0  0  0  0  0  0  0  0
  -86.0965   37.7864   -5.2512 C   0  0  0  0  0  0  0  0  0  0  0  0
  -84.7473   38.1360   -5.0286 N   0  0  0  0  0  0  0  0  0  0  0  0
  -86.4619   37.1877   -6.4750 N   0  0  0  0  0  0  0  0  0  0  0  0
  -84.2768   38.8630   -5.6345 H   0  0  0  0  0  0  0  0  0  0  0  0
  -84.1809   37.6980   -4.2744 H   0  0  0  0  0  0  0  0  0  0  0  0
  -86.0523   36.2541   -6.7381 H   0  0  0  0  0  0  0  0  0  0  0  0
  -87.1236   37.6038   -7.1623 H   0  0  0  0  0  0  0  0  0  0  0  0
  -88.1399   32.2647   -2.3492 C   0  0  0  0  0  0  0  0  0  0  0  0
  -88.9443   31.1173   -2.7839 C   0  0  0  0  0  0  0  0  0  0  0  0
  -88.7176   30.4519   -3.9667 O   0  0  0  0  0  0  0  0  0  0  0  0
  -89.9195   30.6581   -2.0870 O   0  0  0  0  0  0  0  0  0  0  0  0
  -88.8023   29.4422   -4.0616 H   0  0  0  0  0  0  0  0  0  0  0  0
  -87.8092   32.3021   -0.8864 C   0  0  0  0  0  0  0  0  0  0  0  0
  -86.3640   32.3439   -0.5956 C   0  0  0  0  0  0  0  0  0  0  0  0
  -85.7520   31.4501    0.2792 C   0  0  0  0  0  0  0  0  0  0  0  0
  -84.4075   31.4840    0.5537 C   0  0  0  0  0  0  0  0  0  0  0  0
  -83.6367   32.4356   -0.0577 C   0  0  0  0  0  0  0  0  0  0  0  0
  -82.2631   32.4901    0.2063 O   0  0  0  0  0  0  0  0  0  0  0  0
  -84.2279   33.3316   -0.9296 C   0  0  0  0  0  0  0  0  0  0  0  0
  -85.5551   33.3074   -1.2083 C   0  0  0  0  0  0  0  0  0  0  0  0
  -81.8449   31.8426    0.8344 H   0  0  0  0  0  0  0  0  0  0  0  0
  5  6  1  0  0  0
  6  9  1  0  0  0
  9 10  1  0  0  0
 10 11  1  0  0  0
 11 12  2  0  0  0
 12 13  1  0  0  0
 12 14  1  0  0  0
  6  1  1  0  0  0
  1  2  2  0  0  0
  1  3  1  0  0  0
  3 19  1  0  0  0
 19 24  1  0  0  0
 24 25  1  0  0  0
 25 26  2  0  0  0
 26 27  1  0  0  0
 27 28  2  0  0  0
 28 29  1  0  0  0
 28 30  1  0  0  0
 30 31  2  0  0  0
 19 20  1  0  0  0
 20 21  1  0  0  0
 20 22  2  0  0  0
 31 25  1  0  0  0
  5  7  1  0  0  0
  5  8  1  0  0  0
 13 15  1  0  0  0
 13 16  1  0  0  0
 14 17  1  0  0  0
 14 18  1  0  0  0
  3  4  1  0  0  0
 29 32  1  0  0  0
 21 23  1  0  0  0
M  END
> <minimizedAffinity>
-6.48563

> <CNNscore>
0.2424502224

> <CNNaffinity>
4.6848149300

> <CNN_VS>
1.1358344555

> <CNNaffinity_variance>
0.1756991595

$$$$
[H]OC(=O)[C@@]([H])(N([H])C(=O)[C@@]([H])(N([H])[H])C([H])([H])C([H])([H])N=C(N([H])[H])N([H])[H])C([H])([H])c1c([H])c([H])c(O[H])c([H])c1[H]


 32 32  0  0  0  0  0  0  0  0999 V2000
  -88.2509   32.1405   -4.0574 C   0  0  0  0  0  0  0  0  0  0  0  0
  -87.4835   31.4359   -4.7373 O   0  0  0  0  0  0  0  0  0  0  0  0
  -88.4956   31.7971   -2.7047 N   0  0  0  0  0  0  0  0  0  0  0  0
  -89.1295   32.3637   -2.1124 H   0  0  0  0  0  0  0  0  0  0  0  0
  -89.9568   33.8120   -3.6793 N   0  0  0  0  0  0  0  0  0  0  0  0
  -88.9305   33.3552   -4.6373 C   0  0  0  0  0  0  0  0  0  0  0  0
  -90.8648   33.3280   -3.8595 H   0  0  0  0  0  0  0  0  0  0  0  0
  -90.0303   34.8531   -3.7426 H   0  0  0  0  0  0  0  0  0  0  0  0
  -87.9504   34.4733   -4.8921 C   0  0  0  0  0  0  0  0  0  0  0  0
  -88.5590   35.5598   -5.7070 C   0  0  0  0  0  0  0  0  0  0  0  0
  -88.0356   36.8647   -5.4144 N   0  0  0  0  0  0  0  0  0  0  0  0
  -87.2328   37.5249   -6.1363 C   0  0  0  0  0  0  0  0  0  0  0  0
  -86.7939   38.8034   -5.7302 N   0  0  0  0  0  0  0  0  0  0  0  0
  -86.7673   36.9899   -7.3557 N   0  0  0  0  0  0  0  0  0  0  0  0
  -87.0314   39.6575   -6.3056 H   0  0  0  0  0  0  0  0  0  0  0  0
  -86.2323   38.9455   -4.8666 H   0  0  0  0  0  0  0  0  0  0  0  0
  -85.7381   36.8082   -7.4827 H   0  0  0  0  0  0  0  0  0  0  0  0
  -87.3746   36.7519   -8.1668 H   0  0  0  0  0  0  0  0  0  0  0  0
  -87.8254   30.6095   -2.1539 C   0  0  0  0  0  0  0  0  0  0  0  0
  -88.6966   29.4754   -2.4818 C   0  0  0  0  0  0  0  0  0  0  0  0
  -90.0322   29.4405   -2.1529 O   0  0  0  0  0  0  0  0  0  0  0  0
  -88.2672   28.4343   -3.0975 O   0  0  0  0  0  0  0  0  0  0  0  0
  -90.7449   29.0465   -2.7631 H   0  0  0  0  0  0  0  0  0  0  0  0
  -87.5781   30.8297   -0.6908 C   0  0  0  0  0  0  0  0  0  0  0  0
  -86.1885   31.1988   -0.3628 C   0  0  0  0  0  0  0  0  0  0  0  0
  -85.6887   32.4823   -0.5669 C   0  0  0  0  0  0  0  0  0  0  0  0
  -84.3964   32.8319   -0.2637 C   0  0  0  0  0  0  0  0  0  0  0  0
  -83.5649   31.8797    0.2610 C   0  0  0  0  0  0  0  0  0  0  0  0
  -82.2428   32.2122    0.5784 O   0  0  0  0  0  0  0  0  0  0  0  0
  -84.0445   30.5996    0.4704 C   0  0  0  0  0  0  0  0  0  0  0  0
  -85.3193   30.2429    0.1745 C   0  0  0  0  0  0  0  0  0  0  0  0
  -81.9048   33.1347    0.4251 H   0  0  0  0  0  0  0  0  0  0  0  0
  5  6  1  0  0  0
  6  9  1  0  0  0
  9 10  1  0  0  0
 10 11  1  0  0  0
 11 12  2  0  0  0
 12 13  1  0  0  0
 12 14  1  0  0  0
  6  1  1  0  0  0
  1  2  2  0  0  0
  1  3  1  0  0  0
  3 19  1  0  0  0
 19 24  1  0  0  0
 24 25  1  0  0  0
 25 26  2  0  0  0
 26 27  1  0  0  0
 27 28  2  0  0  0
 28 29  1  0  0  0
 28 30  1  0  0  0
 30 31  2  0  0  0
 19 20  1  0  0  0
 20 21  1  0  0  0
 20 22  2  0  0  0
 31 25  1  0  0  0
  5  7  1  0  0  0
  5  8  1  0  0  0
 13 15  1  0  0  0
 13 16  1  0  0  0
 14 17  1  0  0  0
 14 18  1  0  0  0
  3  4  1  0  0  0
 29 32  1  0  0  0
 21 23  1  0  0  0
M  END
> <minimizedAffinity>
-6.38363

> <CNNscore>
0.2225433290

> <CNNaffinity>
4.7773261070

> <CNN_VS>
1.0631620884

> <CNNaffinity_variance>
0.1228396520

$$$$
[H]OC(=O)[C@@]([H])(N([H])C(=O)[C@@]([H])(N([H])[H])C([H])([H])C([H])([H])N=C(N([H])[H])N([H])[H])C([H])([H])c1c([H])c([H])c(O[H])c([H])c1[H]


 32 32  0  0  0  0  0  0  0  0999 V2000
  -90.1715   32.7133   -4.3659 C   0  0  0  0  0  0  0  0  0  0  0  0
  -89.5675   31.8464   -5.0226 O   0  0  0  0  0  0  0  0  0  0  0  0
  -90.0404   32.7344   -2.9552 N   0  0  0  0  0  0  0  0  0  0  0  0
  -90.5305   33.4436   -2.3803 H   0  0  0  0  0  0  0  0  0  0  0  0
  -92.4146   33.6053   -4.5063 N   0  0  0  0  0  0  0  0  0  0  0  0
  -91.0431   33.7464   -5.0343 C   0  0  0  0  0  0  0  0  0  0  0  0
  -92.9538   32.9130   -5.0730 H   0  0  0  0  0  0  0  0  0  0  0  0
  -92.8610   34.5505   -4.4848 H   0  0  0  0  0  0  0  0  0  0  0  0
  -90.5474   35.1469   -4.7725 C   0  0  0  0  0  0  0  0  0  0  0  0
  -89.3013   35.4378   -5.5324 C   0  0  0  0  0  0  0  0  0  0  0  0
  -88.1383   34.7756   -5.0114 N   0  0  0  0  0  0  0  0  0  0  0  0
  -87.4510   35.1489   -4.0166 C   0  0  0  0  0  0  0  0  0  0  0  0
  -86.3252   34.4029   -3.6066 N   0  0  0  0  0  0  0  0  0  0  0  0
  -87.8027   36.3156   -3.3060 N   0  0  0  0  0  0  0  0  0  0  0  0
  -86.3063   33.9439   -2.6547 H   0  0  0  0  0  0  0  0  0  0  0  0
  -85.4915   34.2818   -4.2162 H   0  0  0  0  0  0  0  0  0  0  0  0
  -87.1297   37.1246   -3.2723 H   0  0  0  0  0  0  0  0  0  0  0  0
  -88.6999   36.4489   -2.7955 H   0  0  0  0  0  0  0  0  0  0  0  0
  -89.1868   31.7201   -2.3184 C   0  0  0  0  0  0  0  0  0  0  0  0
  -89.9651   30.4766   -2.3413 C   0  0  0  0  0  0  0  0  0  0  0  0
  -89.6732   29.4286   -3.1838 O   0  0  0  0  0  0  0  0  0  0  0  0
  -90.9766   30.2846   -1.5749 O   0  0  0  0  0  0  0  0  0  0  0  0
  -89.7516   28.4530   -2.9053 H   0  0  0  0  0  0  0  0  0  0  0  0
  -88.7921   32.2078   -0.9557 C   0  0  0  0  0  0  0  0  0  0  0  0
  -87.4260   31.8271   -0.5512 C   0  0  0  0  0  0  0  0  0  0  0  0
  -87.0945   30.5301   -0.1683 C   0  0  0  0  0  0  0  0  0  0  0  0
  -85.8249   30.1698    0.2091 C   0  0  0  0  0  0  0  0  0  0  0  0
  -84.8444   31.1248    0.2089 C   0  0  0  0  0  0  0  0  0  0  0  0
  -83.5419   30.7815    0.5898 O   0  0  0  0  0  0  0  0  0  0  0  0
  -85.1557   32.4182   -0.1685 C   0  0  0  0  0  0  0  0  0  0  0  0
  -86.4065   32.7856   -0.5432 C   0  0  0  0  0  0  0  0  0  0  0  0
  -83.3253   29.8494    0.8599 H   0  0  0  0  0  0  0  0  0  0  0  0
  5  6  1  0  0  0
  6  9  1  0  0  0
  9 10  1  0  0  0
 10 11  1  0  0  0
 11 12  2  0  0  0
 12 13  1  0  0  0
 12 14  1  0  0  0
  6  1  1  0  0  0
  1  2  2  0  0  0
  1  3  1  0  0  0
  3 19  1  0  0  0
 19 24  1  0  0  0
 24 25  1  0  0  0
 25 26  2  0  0  0
 26 27  1  0  0  0
 27 28  2  0  0  0
 28 29  1  0  0  0
 28 30  1  0  0  0
 30 31  2  0  0  0
 19 20  1  0  0  0
 20 21  1  0  0  0
 20 22  2  0  0  0
 31 25  1  0  0  0
  5  7  1  0  0  0
  5  8  1  0  0  0
 13 15  1  0  0  0
 13 16  1  0  0  0
 14 17  1  0  0  0
 14 18  1  0  0  0
  3  4  1  0  0  0
 29 32  1  0  0  0
 21 23  1  0  0  0
M  END
> <minimizedAffinity>
-6.09863

> <CNNscore>
0.2108947486

> <CNNaffinity>
4.5901994705

> <CNN_VS>
0.9680489898

> <CNNaffinity_variance>
0.1603586972

$$$$
[H]OC(=O)C([H])([H])C([H])([H])[C@@]1([H])O[C@]([H])(C(C([H])([H])[H])(C([H])([H])[H])C([H])([H])[H])C(=O)[C@]1([H])O[C@]1(c2c([H])c([H])c(OC([H])([H])[H])c([H])c2[H])C([H])([H])C([H])([H])[C@]1([H])c1c([H])c([H])c([H])c(-c2nc([H])c([H])c([H])c2[H])c1[H]


 41 45  0  0  0  0  0  0  0  0999 V2000
  -89.7081   28.0193   -1.4521 C   0  0  0  0  0  0  0  0  0  0  0  0
  -89.0208   29.1072   -2.1971 C   0  0  0  0  0  0  0  0  0  0  0  0
  -87.9195   28.1619   -2.7042 C   0  0  0  0  0  0  0  0  0  0  0  0
  -88.8328   27.0487   -2.3507 C   0  0  0  0  0  0  0  0  0  0  0  0
  -91.1328   27.9459   -2.0124 C   0  0  0  0  0  0  0  0  0  0  0  0
  -92.0213   26.9949   -1.6016 C   0  0  0  0  0  0  0  0  0  0  0  0
  -93.3219   26.9299   -2.1051 C   0  0  0  0  0  0  0  0  0  0  0  0
  -93.7545   27.8252   -3.0379 C   0  0  0  0  0  0  0  0  0  0  0  0
  -92.8686   28.7955   -3.4678 C   0  0  0  0  0  0  0  0  0  0  0  0
  -91.5787   28.8376   -2.9497 C   0  0  0  0  0  0  0  0  0  0  0  0
  -95.0650   27.7776   -3.5559 O   0  0  0  0  0  0  0  0  0  0  0  0
  -95.2241   27.8811   -4.9811 C   0  0  0  0  0  0  0  0  0  0  0  0
  -88.4649   30.2943   -1.6207 C   0  0  0  0  0  0  0  0  0  0  0  0
  -89.3731   31.3515   -1.4014 C   0  0  0  0  0  0  0  0  0  0  0  0
  -88.9665   32.5362   -0.8360 C   0  0  0  0  0  0  0  0  0  0  0  0
  -87.6551   32.7100   -0.4721 C   0  0  0  0  0  0  0  0  0  0  0  0
  -86.7121   31.7051   -0.6607 C   0  0  0  0  0  0  0  0  0  0  0  0
  -87.1802   30.5537   -1.2272 C   0  0  0  0  0  0  0  0  0  0  0  0
  -85.3206   31.9194   -0.2614 C   0  0  0  0  0  0  0  0  0  0  0  0
  -84.5761   31.0402    0.4777 C   0  0  0  0  0  0  0  0  0  0  0  0
  -83.2728   31.3399    0.7690 C   0  0  0  0  0  0  0  0  0  0  0  0
  -82.6707   32.5016    0.3449 C   0  0  0  0  0  0  0  0  0  0  0  0
  -83.4515   33.3663   -0.3977 C   0  0  0  0  0  0  0  0  0  0  0  0
  -84.7354   33.0594   -0.6777 N   0  0  0  0  0  0  0  0  0  0  0  0
  -89.5177   27.6249   -0.2452 O   0  0  0  0  0  0  0  0  0  0  0  0
  -89.8881   27.0796    3.1504 C   0  0  0  0  0  0  0  0  0  0  0  0
  -88.6483   27.7435    3.0834 O   0  0  0  0  0  0  0  0  0  0  0  0
  -88.2501   27.6806    1.7772 C   0  0  0  0  0  0  0  0  0  0  0  0
  -89.5612   27.8560    0.9920 C   0  0  0  0  0  0  0  0  0  0  0  0
  -90.2482   26.7111    1.8036 C   0  0  0  0  0  0  0  0  0  0  0  0
  -90.8556   25.8607    1.2889 O   0  0  0  0  0  0  0  0  0  0  0  0
  -91.1059   25.0988    4.1122 C   0  0  0  0  0  0  0  0  0  0  0  0
  -89.9381   26.0347    4.2011 C   0  0  0  0  0  0  0  0  0  0  0  0
  -89.9649   26.6767    5.5649 C   0  0  0  0  0  0  0  0  0  0  0  0
  -88.6719   25.2128    4.1344 C   0  0  0  0  0  0  0  0  0  0  0  0
  -87.0925   28.4283    1.3147 C   0  0  0  0  0  0  0  0  0  0  0  0
  -85.8346   27.6331    1.2931 C   0  0  0  0  0  0  0  0  0  0  0  0
  -84.8923   27.8563    2.3716 C   0  0  0  0  0  0  0  0  0  0  0  0
  -85.0405   28.9931    3.2135 O   0  0  0  0  0  0  0  0  0  0  0  0
  -83.9244   27.1304    2.6537 O   0  0  0  0  0  0  0  0  0  0  0  0
  -85.5850   29.7812    2.8916 H   0  0  0  0  0  0  0  0  0  0  0  0
 32 33  1  0  0  0
 33 34  1  0  0  0
 33 35  1  0  0  0
 33 26  1  0  0  0
 26 27  1  0  0  0
 27 28  1  0  0  0
 28 36  1  0  0  0
 36 37  1  0  0  0
 37 38  1  0  0  0
 38 39  1  0  0  0
 38 40  2  0  0  0
 28 29  1  0  0  0
 29 25  1  0  0  0
  1 25  1  0  0  0
  1  5  1  0  0  0
  5  6  2  0  0  0
  6  7  1  0  0  0
  7  8  2  0  0  0
  8 11  1  0  0  0
 11 12  1  0  0  0
  8  9  1  0  0  0
  9 10  2  0  0  0
  1  2  1  0  0  0
  2  3  1  0  0  0
  3  4  1  0  0  0
  2 13  1  0  0  0
 13 14  2  0  0  0
 14 15  1  0  0  0
 15 16  2  0  0  0
 16 17  1  0  0  0
 17 18  2  0  0  0
 17 19  1  0  0  0
 19 20  2  0  0  0
 20 21  1  0  0  0
 21 22  2  0  0  0
 22 23  1  0  0  0
 23 24  2  0  0  0
 29 30  1  0  0  0
 30 31  2  0  0  0
 30 26  1  0  0  0
  4  1  1  0  0  0
 18 13  1  0  0  0
 24 19  1  0  0  0
 10  5  1  0  0  0
 39 41  1  0  0  0
M  END
> <minimizedAffinity>
-8.74333

> <CNNscore>
0.4740949571

> <CNNaffinity>
7.3434844017

> <CNN_VS>
3.4815089703

> <CNNaffinity_variance>
0.0455295518

$$$$
[H]OC(=O)C([H])([H])C([H])([H])[C@@]1([H])O[C@]([H])(C(C([H])([H])[H])(C([H])([H])[H])C([H])([H])[H])C(=O)[C@]1([H])O[C@]1(c2c([H])c([H])c(OC([H])([H])[H])c([H])c2[H])C([H])([H])C([H])([H])[C@]1([H])c1c([H])c([H])c([H])c(-c2nc([H])c([H])c([H])c2[H])c1[H]


 41 45  0  0  0  0  0  0  0  0999 V2000
  -89.8902   27.7761   -0.3987 C   0  0  0  0  0  0  0  0  0  0  0  0
  -89.1073   27.4555    0.8241 C   0  0  0  0  0  0  0  0  0  0  0  0
  -90.0461   28.2729    1.7264 C   0  0  0  0  0  0  0  0  0  0  0  0
  -91.0293   28.2040    0.6187 C   0  0  0  0  0  0  0  0  0  0  0  0
  -90.3336   26.4341   -0.9914 C   0  0  0  0  0  0  0  0  0  0  0  0
  -91.6441   26.1602   -1.2561 C   0  0  0  0  0  0  0  0  0  0  0  0
  -92.0501   24.9412   -1.8024 C   0  0  0  0  0  0  0  0  0  0  0  0
  -91.1395   23.9690   -2.0930 C   0  0  0  0  0  0  0  0  0  0  0  0
  -89.8069   24.2270   -1.8308 C   0  0  0  0  0  0  0  0  0  0  0  0
  -89.4298   25.4498   -1.2863 C   0  0  0  0  0  0  0  0  0  0  0  0
  -91.5297   22.7330   -2.6479 O   0  0  0  0  0  0  0  0  0  0  0  0
  -92.7316   22.7047   -3.4367 C   0  0  0  0  0  0  0  0  0  0  0  0
  -87.7356   27.7970    1.0529 C   0  0  0  0  0  0  0  0  0  0  0  0
  -86.9669   26.8248    1.7271 C   0  0  0  0  0  0  0  0  0  0  0  0
  -85.6330   27.0253    1.9892 C   0  0  0  0  0  0  0  0  0  0  0  0
  -85.0219   28.1883    1.5940 C   0  0  0  0  0  0  0  0  0  0  0  0
  -85.7247   29.1841    0.9240 C   0  0  0  0  0  0  0  0  0  0  0  0
  -87.0459   28.9234    0.6950 C   0  0  0  0  0  0  0  0  0  0  0  0
  -85.0453   30.4137    0.5139 C   0  0  0  0  0  0  0  0  0  0  0  0
  -83.6911   30.6084    0.5547 C   0  0  0  0  0  0  0  0  0  0  0  0
  -83.1679   31.7960    0.1199 C   0  0  0  0  0  0  0  0  0  0  0  0
  -83.9545   32.8157   -0.3632 C   0  0  0  0  0  0  0  0  0  0  0  0
  -85.3166   32.5856   -0.3891 C   0  0  0  0  0  0  0  0  0  0  0  0
  -85.8200   31.4104    0.0429 N   0  0  0  0  0  0  0  0  0  0  0  0
  -89.7615   28.7716   -1.1993 O   0  0  0  0  0  0  0  0  0  0  0  0
  -89.3078   31.8724   -2.6634 C   0  0  0  0  0  0  0  0  0  0  0  0
  -90.7058   31.7137   -2.7163 O   0  0  0  0  0  0  0  0  0  0  0  0
  -90.9495   30.3869   -2.4951 C   0  0  0  0  0  0  0  0  0  0  0  0
  -89.9039   30.0004   -1.4351 C   0  0  0  0  0  0  0  0  0  0  0  0
  -88.7468   30.5945   -2.3007 C   0  0  0  0  0  0  0  0  0  0  0  0
  -87.7557   30.0149   -2.4979 O   0  0  0  0  0  0  0  0  0  0  0  0
  -88.6108   31.7293   -5.0769 C   0  0  0  0  0  0  0  0  0  0  0  0
  -88.7517   32.5730   -3.8458 C   0  0  0  0  0  0  0  0  0  0  0  0
  -87.3936   33.1391   -3.5173 C   0  0  0  0  0  0  0  0  0  0  0  0
  -89.6407   33.7479   -4.1812 C   0  0  0  0  0  0  0  0  0  0  0  0
  -92.3056   29.9012   -2.3001 C   0  0  0  0  0  0  0  0  0  0  0  0
  -93.0329   29.6279   -3.5696 C   0  0  0  0  0  0  0  0  0  0  0  0
  -92.3104   28.9178   -4.6062 C   0  0  0  0  0  0  0  0  0  0  0  0
  -91.9894   29.5810   -5.8228 O   0  0  0  0  0  0  0  0  0  0  0  0
  -91.9236   27.7388   -4.5459 O   0  0  0  0  0  0  0  0  0  0  0  0
  -92.5077   30.4066   -6.0894 H   0  0  0  0  0  0  0  0  0  0  0  0
 32 33  1  0  0  0
 33 34  1  0  0  0
 33 35  1  0  0  0
 33 26  1  0  0  0
 26 27  1  0  0  0
 27 28  1  0  0  0
 28 36  1  0  0  0
 36 37  1  0  0  0
 37 38  1  0  0  0
 38 39  1  0  0  0
 38 40  2  0  0  0
 28 29  1  0  0  0
 29 25  1  0  0  0
  1 25  1  0  0  0
  1  5  1  0  0  0
  5  6  2  0  0  0
  6  7  1  0  0  0
  7  8  2  0  0  0
  8 11  1  0  0  0
 11 12  1  0  0  0
  8  9  1  0  0  0
  9 10  2  0  0  0
  1  2  1  0  0  0
  2  3  1  0  0  0
  3  4  1  0  0  0
  2 13  1  0  0  0
 13 14  2  0  0  0
 14 15  1  0  0  0
 15 16  2  0  0  0
 16 17  1  0  0  0
 17 18  2  0  0  0
 17 19  1  0  0  0
 19 20  2  0  0  0
 20 21  1  0  0  0
 21 22  2  0  0  0
 22 23  1  0  0  0
 23 24  2  0  0  0
 29 30  1  0  0  0
 30 31  2  0  0  0
 30 26  1  0  0  0
  4  1  1  0  0  0
 18 13  1  0  0  0
 24 19  1  0  0  0
 10  5  1  0  0  0
 39 41  1  0  0  0
M  END
> <minimizedAffinity>
-9.21967

> <CNNscore>
0.2454728782

> <CNNaffinity>
6.6365571022

> <CNN_VS>
1.6290947199

> <CNNaffinity_variance>
0.5022338033

$$$$
[H]OC(=O)C([H])([H])C([H])([H])[C@@]1([H])O[C@]([H])(C(C([H])([H])[H])(C([H])([H])[H])C([H])([H])[H])C(=O)[C@]1([H])O[C@]1(c2c([H])c([H])c(OC([H])([H])[H])c([H])c2[H])C([H])([H])C([H])([H])[C@]1([H])c1c([H])c([H])c([H])c(-c2nc([H])c([H])c([H])c2[H])c1[H]


 41 45  0  0  0  0  0  0  0  0999 V2000
  -89.3016   28.3678   -0.0523 C   0  0  0  0  0  0  0  0  0  0  0  0
  -90.4631   28.0542   -0.9263 C   0  0  0  0  0  0  0  0  0  0  0  0
  -89.6189   27.1596   -1.8487 C   0  0  0  0  0  0  0  0  0  0  0  0
  -88.6231   27.1159   -0.7511 C   0  0  0  0  0  0  0  0  0  0  0  0
  -89.6867   27.9088    1.3583 C   0  0  0  0  0  0  0  0  0  0  0  0
  -89.0422   26.8810    1.9835 C   0  0  0  0  0  0  0  0  0  0  0  0
  -89.3863   26.4653    3.2712 C   0  0  0  0  0  0  0  0  0  0  0  0
  -90.3922   27.0789    3.9570 C   0  0  0  0  0  0  0  0  0  0  0  0
  -91.0581   28.1214    3.3400 C   0  0  0  0  0  0  0  0  0  0  0  0
  -90.6951   28.5154    2.0567 C   0  0  0  0  0  0  0  0  0  0  0  0
  -90.7520   26.6754    5.2592 O   0  0  0  0  0  0  0  0  0  0  0  0
  -89.7004   26.5367    6.2299 C   0  0  0  0  0  0  0  0  0  0  0  0
  -91.2260   29.0052   -1.6772 C   0  0  0  0  0  0  0  0  0  0  0  0
  -92.6223   28.9632   -1.4792 C   0  0  0  0  0  0  0  0  0  0  0  0
  -93.4619   29.8370   -2.1272 C   0  0  0  0  0  0  0  0  0  0  0  0
  -92.9478   30.7747   -2.9868 C   0  0  0  0  0  0  0  0  0  0  0  0
  -91.5803   30.8680   -3.2229 C   0  0  0  0  0  0  0  0  0  0  0  0
  -90.8013   29.9710   -2.5488 C   0  0  0  0  0  0  0  0  0  0  0  0
  -91.0613   31.8793   -4.1445 C   0  0  0  0  0  0  0  0  0  0  0  0
  -89.7426   32.2270   -4.2604 C   0  0  0  0  0  0  0  0  0  0  0  0
  -89.3732   33.1723   -5.1786 C   0  0  0  0  0  0  0  0  0  0  0  0
  -90.2821   33.7960   -6.0014 C   0  0  0  0  0  0  0  0  0  0  0  0
  -91.6041   33.4219   -5.8568 C   0  0  0  0  0  0  0  0  0  0  0  0
  -91.9554   32.4888   -4.9474 N   0  0  0  0  0  0  0  0  0  0  0  0
  -88.4463   29.3192   -0.1604 O   0  0  0  0  0  0  0  0  0  0  0  0
  -85.9275   31.5117   -1.0620 C   0  0  0  0  0  0  0  0  0  0  0  0
  -85.2627   30.6281   -0.1904 O   0  0  0  0  0  0  0  0  0  0  0  0
  -86.2385   29.9542    0.4896 C   0  0  0  0  0  0  0  0  0  0  0  0
  -87.3307   29.7344   -0.5712 C   0  0  0  0  0  0  0  0  0  0  0  0
  -87.3405   31.2539   -0.9349 C   0  0  0  0  0  0  0  0  0  0  0  0
  -88.3279   31.8638   -1.0358 O   0  0  0  0  0  0  0  0  0  0  0  0
  -83.9730   33.0759   -0.8074 C   0  0  0  0  0  0  0  0  0  0  0  0
  -85.4566   32.9130   -0.9485 C   0  0  0  0  0  0  0  0  0  0  0  0
  -86.1081   33.5809    0.2357 C   0  0  0  0  0  0  0  0  0  0  0  0
  -85.8984   33.6784   -2.1742 C   0  0  0  0  0  0  0  0  0  0  0  0
  -85.9069   28.8278    1.3464 C   0  0  0  0  0  0  0  0  0  0  0  0
  -84.9478   29.1635    2.4338 C   0  0  0  0  0  0  0  0  0  0  0  0
  -83.7122   28.4073    2.4829 C   0  0  0  0  0  0  0  0  0  0  0  0
  -82.4841   29.0402    2.1448 O   0  0  0  0  0  0  0  0  0  0  0  0
  -83.6035   27.2116    2.8019 O   0  0  0  0  0  0  0  0  0  0  0  0
  -82.4978   29.8870    1.5934 H   0  0  0  0  0  0  0  0  0  0  0  0
 32 33  1  0  0  0
 33 34  1  0  0  0
 33 35  1  0  0  0
 33 26  1  0  0  0
 26 27  1  0  0  0
 27 28  1  0  0  0
 28 36  1  0  0  0
 36 37  1  0  0  0
 37 38  1  0  0  0
 38 39  1  0  0  0
 38 40  2  0  0  0
 28 29  1  0  0  0
 29 25  1  0  0  0
  1 25  1  0  0  0
  1  5  1  0  0  0
  5  6  2  0  0  0
  6  7  1  0  0  0
  7  8  2  0  0  0
  8 11  1  0  0  0
 11 12  1  0  0  0
  8  9  1  0  0  0
  9 10  2  0  0  0
  1  2  1  0  0  0
  2  3  1  0  0  0
  3  4  1  0  0  0
  2 13  1  0  0  0
 13 14  2  0  0  0
 14 15  1  0  0  0
 15 16  2  0  0  0
 16 17  1  0  0  0
 17 18  2  0  0  0
 17 19  1  0  0  0
 19 20  2  0  0  0
 20 21  1  0  0  0
 21 22  2  0  0  0
 22 23  1  0  0  0
 23 24  2  0  0  0
 29 30  1  0  0  0
 30 31  2  0  0  0
 30 26  1  0  0  0
  4  1  1  0  0  0
 18 13  1  0  0  0
 24 19  1  0  0  0
 10  5  1  0  0  0
 39 41  1  0  0  0
M  END
> <minimizedAffinity>
-8.54944

> <CNNscore>
0.2266979814

> <CNNaffinity>
6.9742584229

> <CNN_VS>
1.5810502768

> <CNNaffinity_variance>
0.1737199724

$$$$
[H]OC(=O)C([H])([H])C([H])([H])[C@@]1([H])O[C@]([H])(C(C([H])([H])[H])(C([H])([H])[H])C([H])([H])[H])C(=O)[C@]1([H])O[C@]1(c2c([H])c([H])c(OC([H])([H])[H])c([H])c2[H])C([H])([H])C([H])([H])[C@]1([H])c1c([H])c([H])c([H])c(-c2nc([H])c([H])c([H])c2[H])c1[H]


 41 45  0  0  0  0  0  0  0  0999 V2000
  -89.2842   32.0515   -3.3719 C   0  0  0  0  0  0  0  0  0  0  0  0
  -87.8730   32.5199   -3.3528 C   0  0  0  0  0  0  0  0  0  0  0  0
  -87.4197   31.4205   -4.3272 C   0  0  0  0  0  0  0  0  0  0  0  0
  -88.8516   31.2607   -4.6770 C   0  0  0  0  0  0  0  0  0  0  0  0
  -90.1261   33.2378   -3.8546 C   0  0  0  0  0  0  0  0  0  0  0  0
  -91.2887   33.0625   -4.5477 C   0  0  0  0  0  0  0  0  0  0  0  0
  -92.0611   34.1412   -4.9826 C   0  0  0  0  0  0  0  0  0  0  0  0
  -91.6750   35.4236   -4.7278 C   0  0  0  0  0  0  0  0  0  0  0  0
  -90.4994   35.6218   -4.0280 C   0  0  0  0  0  0  0  0  0  0  0  0
  -89.7489   34.5295   -3.6064 C   0  0  0  0  0  0  0  0  0  0  0  0
  -92.4433   36.5256   -5.1560 O   0  0  0  0  0  0  0  0  0  0  0  0
  -91.9423   37.8419   -4.8666 C   0  0  0  0  0  0  0  0  0  0  0  0
  -87.0259   32.5770   -2.1998 C   0  0  0  0  0  0  0  0  0  0  0  0
  -86.4427   33.8332   -1.9302 C   0  0  0  0  0  0  0  0  0  0  0  0
  -85.6258   34.0221   -0.8416 C   0  0  0  0  0  0  0  0  0  0  0  0
  -85.3622   32.9787    0.0095 C   0  0  0  0  0  0  0  0  0  0  0  0
  -85.9083   31.7169   -0.2009 C   0  0  0  0  0  0  0  0  0  0  0  0
  -86.7104   31.5956   -1.2999 C   0  0  0  0  0  0  0  0  0  0  0  0
  -85.6097   30.6236    0.7249 C   0  0  0  0  0  0  0  0  0  0  0  0
  -85.0815   30.7834    1.9775 C   0  0  0  0  0  0  0  0  0  0  0  0
  -84.8685   29.6838    2.7641 C   0  0  0  0  0  0  0  0  0  0  0  0
  -85.1669   28.4082    2.3449 C   0  0  0  0  0  0  0  0  0  0  0  0
  -85.6974   28.2836    1.0753 C   0  0  0  0  0  0  0  0  0  0  0  0
  -85.9022   29.3757    0.3095 N   0  0  0  0  0  0  0  0  0  0  0  0
  -89.8532   31.1787   -2.6216 O   0  0  0  0  0  0  0  0  0  0  0  0
  -90.3154   28.3152   -0.7371 C   0  0  0  0  0  0  0  0  0  0  0  0
  -91.4562   28.3226   -1.5623 O   0  0  0  0  0  0  0  0  0  0  0  0
  -91.5459   29.5843   -2.0808 C   0  0  0  0  0  0  0  0  0  0  0  0
  -90.0799   29.9727   -2.3390 C   0  0  0  0  0  0  0  0  0  0  0  0
  -89.6813   29.6031   -0.8741 C   0  0  0  0  0  0  0  0  0  0  0  0
  -89.0332   30.3061   -0.2088 O   0  0  0  0  0  0  0  0  0  0  0  0
  -91.2140   28.7945    1.5638 C   0  0  0  0  0  0  0  0  0  0  0  0
  -90.5829   27.8064    0.6295 C   0  0  0  0  0  0  0  0  0  0  0  0
  -89.3002   27.3289    1.2615 C   0  0  0  0  0  0  0  0  0  0  0  0
  -91.4924   26.6034    0.5343 C   0  0  0  0  0  0  0  0  0  0  0  0
  -92.5098   29.8941   -3.1237 C   0  0  0  0  0  0  0  0  0  0  0  0
  -93.7978   30.4336   -2.6087 C   0  0  0  0  0  0  0  0  0  0  0  0
  -94.3996   31.5263   -3.3467 C   0  0  0  0  0  0  0  0  0  0  0  0
  -94.5108   31.4445   -4.7623 O   0  0  0  0  0  0  0  0  0  0  0  0
  -94.8489   32.5753   -2.8556 O   0  0  0  0  0  0  0  0  0  0  0  0
  -93.9196   30.8010   -5.2699 H   0  0  0  0  0  0  0  0  0  0  0  0
 32 33  1  0  0  0
 33 34  1  0  0  0
 33 35  1  0  0  0
 33 26  1  0  0  0
 26 27  1  0  0  0
 27 28  1  0  0  0
 28 36  1  0  0  0
 36 37  1  0  0  0
 37 38  1  0  0  0
 38 39  1  0  0  0
 38 40  2  0  0  0
 28 29  1  0  0  0
 29 25  1  0  0  0
  1 25  1  0  0  0
  1  5  1  0  0  0
  5  6  2  0  0  0
  6  7  1  0  0  0
  7  8  2  0  0  0
  8 11  1  0  0  0
 11 12  1  0  0  0
  8  9  1  0  0  0
  9 10  2  0  0  0
  1  2  1  0  0  0
  2  3  1  0  0  0
  3  4  1  0  0  0
  2 13  1  0  0  0
 13 14  2  0  0  0
 14 15  1  0  0  0
 15 16  2  0  0  0
 16 17  1  0  0  0
 17 18  2  0  0  0
 17 19  1  0  0  0
 19 20  2  0  0  0
 20 21  1  0  0  0
 21 22  2  0  0  0
 22 23  1  0  0  0
 23 24  2  0  0  0
 29 30  1  0  0  0
 30 31  2  0  0  0
 30 26  1  0  0  0
  4  1  1  0  0  0
 18 13  1  0  0  0
 24 19  1  0  0  0
 10  5  1  0  0  0
 39 41  1  0  0  0
M  END
> <minimizedAffinity>
-7.92106

> <CNNscore>
0.1627659351

> <CNNaffinity>
6.3869376183

> <CNN_VS>
1.0395758152

> <CNNaffinity_variance>
0.3185482919

$$$$
[H]OC(=O)C([H])([H])C([H])([H])[C@@]1([H])O[C@]([H])(C(C([H])([H])[H])(C([H])([H])[H])C([H])([H])[H])C(=O)[C@]1([H])O[C@]1(c2c([H])c([H])c(OC([H])([H])[H])c([H])c2[H])C([H])([H])C([H])([H])[C@]1([H])c1c([H])c([H])c([H])c(-c2nc([H])c([H])c([H])c2[H])c1[H]


 41 45  0  0  0  0  0  0  0  0999 V2000
  -87.8127   31.0435   -1.3539 C   0  0  0  0  0  0  0  0  0  0  0  0
  -88.1622   32.4869   -1.2786 C   0  0  0  0  0  0  0  0  0  0  0  0
  -89.5505   32.1935   -0.6868 C   0  0  0  0  0  0  0  0  0  0  0  0
  -89.0285   30.8461   -0.3545 C   0  0  0  0  0  0  0  0  0  0  0  0
  -86.5419   30.8630   -0.5163 C   0  0  0  0  0  0  0  0  0  0  0  0
  -85.8427   31.9284   -0.0278 C   0  0  0  0  0  0  0  0  0  0  0  0
  -84.6886   31.7668    0.7412 C   0  0  0  0  0  0  0  0  0  0  0  0
  -84.2134   30.5228    1.0334 C   0  0  0  0  0  0  0  0  0  0  0  0
  -84.9072   29.4308    0.5464 C   0  0  0  0  0  0  0  0  0  0  0  0
  -86.0540   29.6201   -0.2172 C   0  0  0  0  0  0  0  0  0  0  0  0
  -83.0516   30.3394    1.8110 O   0  0  0  0  0  0  0  0  0  0  0  0
  -82.6392   28.9901    2.0876 C   0  0  0  0  0  0  0  0  0  0  0  0
  -88.2481   33.3859   -2.3898 C   0  0  0  0  0  0  0  0  0  0  0  0
  -87.3355   33.1505   -3.4397 C   0  0  0  0  0  0  0  0  0  0  0  0
  -87.3304   33.9321   -4.5699 C   0  0  0  0  0  0  0  0  0  0  0  0
  -88.2240   34.9656   -4.6951 C   0  0  0  0  0  0  0  0  0  0  0  0
  -89.1498   35.2474   -3.6961 C   0  0  0  0  0  0  0  0  0  0  0  0
  -89.1022   34.4344   -2.5994 C   0  0  0  0  0  0  0  0  0  0  0  0
  -90.0913   36.3559   -3.8586 C   0  0  0  0  0  0  0  0  0  0  0  0
  -91.4513   36.2206   -3.9343 C   0  0  0  0  0  0  0  0  0  0  0  0
  -92.2333   37.3366   -4.0615 C   0  0  0  0  0  0  0  0  0  0  0  0
  -91.7046   38.6052   -4.1167 C   0  0  0  0  0  0  0  0  0  0  0  0
  -90.3288   38.7048   -4.0386 C   0  0  0  0  0  0  0  0  0  0  0  0
  -89.5689   37.5966   -3.9138 N   0  0  0  0  0  0  0  0  0  0  0  0
  -88.0235   30.2127   -2.3098 O   0  0  0  0  0  0  0  0  0  0  0  0
  -89.9216   27.3515   -2.7283 C   0  0  0  0  0  0  0  0  0  0  0  0
  -90.8009   28.3642   -3.1571 O   0  0  0  0  0  0  0  0  0  0  0  0
  -90.2818   29.5423   -2.6974 C   0  0  0  0  0  0  0  0  0  0  0  0
  -88.7636   29.3542   -2.8584 C   0  0  0  0  0  0  0  0  0  0  0  0
  -88.8078   27.9995   -2.0812 C   0  0  0  0  0  0  0  0  0  0  0  0
  -88.0562   27.7462   -1.2279 O   0  0  0  0  0  0  0  0  0  0  0  0
  -89.7617   25.0299   -1.7715 C   0  0  0  0  0  0  0  0  0  0  0  0
  -90.6035   26.2467   -2.0125 C   0  0  0  0  0  0  0  0  0  0  0  0
  -91.8282   25.8152   -2.7785 C   0  0  0  0  0  0  0  0  0  0  0  0
  -91.0870   26.7555   -0.6744 C   0  0  0  0  0  0  0  0  0  0  0  0
  -90.8424   30.8166   -3.1156 C   0  0  0  0  0  0  0  0  0  0  0  0
  -90.4070   31.2468   -4.4723 C   0  0  0  0  0  0  0  0  0  0  0  0
  -91.0664   32.4048   -5.0424 C   0  0  0  0  0  0  0  0  0  0  0  0
  -90.5385   33.0104   -6.2160 O   0  0  0  0  0  0  0  0  0  0  0  0
  -92.0891   32.9519   -4.5972 O   0  0  0  0  0  0  0  0  0  0  0  0
  -89.5746   32.8435   -6.4697 H   0  0  0  0  0  0  0  0  0  0  0  0
 32 33  1  0  0  0
 33 34  1  0  0  0
 33 35  1  0  0  0
 33 26  1  0  0  0
 26 27  1  0  0  0
 27 28  1  0  0  0
 28 36  1  0  0  0
 36 37  1  0  0  0
 37 38  1  0  0  0
 38 39  1  0  0  0
 38 40  2  0  0  0
 28 29  1  0  0  0
 29 25  1  0  0  0
  1 25  1  0  0  0
  1  5  1  0  0  0
  5  6  2  0  0  0
  6  7  1  0  0  0
  7  8  2  0  0  0
  8 11  1  0  0  0
 11 12  1  0  0  0
  8  9  1  0  0  0
  9 10  2  0  0  0
  1  2  1  0  0  0
  2  3  1  0  0  0
  3  4  1  0  0  0
  2 13  1  0  0  0
 13 14  2  0  0  0
 14 15  1  0  0  0
 15 16  2  0  0  0
 16 17  1  0  0  0
 17 18  2  0  0  0
 17 19  1  0  0  0
 19 20  2  0  0  0
 20 21  1  0  0  0
 21 22  2  0  0  0
 22 23  1  0  0  0
 23 24  2  0  0  0
 29 30  1  0  0  0
 30 31  2  0  0  0
 30 26  1  0  0  0
  4  1  1  0  0  0
 18 13  1  0  0  0
 24 19  1  0  0  0
 10  5  1  0  0  0
 39 41  1  0  0  0
M  END
> <minimizedAffinity>
-8.79285

> <CNNscore>
0.1556050628

> <CNNaffinity>
6.1613569260

> <CNN_VS>
0.9587383270

> <CNNaffinity_variance>
0.4727792740

$$$$
[H]OC(=O)C([H])([H])C([H])([H])[C@@]1([H])O[C@]([H])(C(C([H])([H])[H])(C([H])([H])[H])C([H])([H])[H])C(=O)[C@]1([H])O[C@]1(c2c([H])c([H])c(OC([H])([H])[H])c([H])c2[H])C([H])([H])C([H])([H])[C@]1([H])c1c([H])c([H])c([H])c(-c2nc([H])c([H])c([H])c2[H])c1[H]


 41 45  0  0  0  0  0  0  0  0999 V2000
  -89.7930   28.7165   -1.5226 C   0  0  0  0  0  0  0  0  0  0  0  0
  -88.6618   29.5371   -2.0305 C   0  0  0  0  0  0  0  0  0  0  0  0
  -88.1020   28.3762   -2.8688 C   0  0  0  0  0  0  0  0  0  0  0  0
  -89.4341   27.7419   -2.7215 C   0  0  0  0  0  0  0  0  0  0  0  0
  -91.0755   29.4453   -1.9382 C   0  0  0  0  0  0  0  0  0  0  0  0
  -91.0472   30.5787   -2.6980 C   0  0  0  0  0  0  0  0  0  0  0  0
  -92.2143   31.2408   -3.0839 C   0  0  0  0  0  0  0  0  0  0  0  0
  -93.4386   30.7727   -2.7088 C   0  0  0  0  0  0  0  0  0  0  0  0
  -93.4881   29.6264   -1.9376 C   0  0  0  0  0  0  0  0  0  0  0  0
  -92.3102   28.9865   -1.5672 C   0  0  0  0  0  0  0  0  0  0  0  0
  -94.6283   31.4256   -3.0912 O   0  0  0  0  0  0  0  0  0  0  0  0
  -95.1982   31.0828   -4.3660 C   0  0  0  0  0  0  0  0  0  0  0  0
  -87.6407   30.1416   -1.2290 C   0  0  0  0  0  0  0  0  0  0  0  0
  -87.6586   31.5514   -1.1759 C   0  0  0  0  0  0  0  0  0  0  0  0
  -86.7430   32.2492   -0.4255 C   0  0  0  0  0  0  0  0  0  0  0  0
  -85.7863   31.5764    0.2919 C   0  0  0  0  0  0  0  0  0  0  0  0
  -85.7174   30.1873    0.2821 C   0  0  0  0  0  0  0  0  0  0  0  0
  -86.6551   29.5541   -0.4833 C   0  0  0  0  0  0  0  0  0  0  0  0
  -84.6863   29.4975    1.0583 C   0  0  0  0  0  0  0  0  0  0  0  0
  -83.4086   29.9541    1.2390 C   0  0  0  0  0  0  0  0  0  0  0  0
  -82.5376   29.2317    2.0090 C   0  0  0  0  0  0  0  0  0  0  0  0
  -82.8958   28.0513    2.6176 C   0  0  0  0  0  0  0  0  0  0  0  0
  -84.1921   27.6197    2.4132 C   0  0  0  0  0  0  0  0  0  0  0  0
  -85.0410   28.3409    1.6514 N   0  0  0  0  0  0  0  0  0  0  0  0
  -89.8402   27.9670   -0.4812 O   0  0  0  0  0  0  0  0  0  0  0  0
  -89.2039   26.4873    2.5799 C   0  0  0  0  0  0  0  0  0  0  0  0
  -88.9649   25.4330    1.6779 O   0  0  0  0  0  0  0  0  0  0  0  0
  -89.5295   25.8087    0.4910 C   0  0  0  0  0  0  0  0  0  0  0  0
  -89.2423   27.3182    0.4173 C   0  0  0  0  0  0  0  0  0  0  0  0
  -89.8477   27.5443    1.8398 C   0  0  0  0  0  0  0  0  0  0  0  0
  -90.6094   28.3966    2.0643 O   0  0  0  0  0  0  0  0  0  0  0  0
  -91.1691   25.3972    3.7117 C   0  0  0  0  0  0  0  0  0  0  0  0
  -89.8232   26.0427    3.8514 C   0  0  0  0  0  0  0  0  0  0  0  0
  -89.9689   27.2132    4.7903 C   0  0  0  0  0  0  0  0  0  0  0  0
  -88.8983   25.0578    4.5280 C   0  0  0  0  0  0  0  0  0  0  0  0
  -89.3112   25.0302   -0.7170 C   0  0  0  0  0  0  0  0  0  0  0  0
  -90.1661   23.8153   -0.8100 C   0  0  0  0  0  0  0  0  0  0  0  0
  -89.7493   22.6535   -0.0503 C   0  0  0  0  0  0  0  0  0  0  0  0
  -90.0219   22.5877    1.3441 O   0  0  0  0  0  0  0  0  0  0  0  0
  -89.1517   21.6635   -0.5045 O   0  0  0  0  0  0  0  0  0  0  0  0
  -90.2160   23.4394    1.8523 H   0  0  0  0  0  0  0  0  0  0  0  0
 32 33  1  0  0  0
 33 34  1  0  0  0
 33 35  1  0  0  0
 33 26  1  0  0  0
 26 27  1  0  0  0
 27 28  1  0  0  0
 28 36  1  0  0  0
 36 37  1  0  0  0
 37 38  1  0  0  0
 38 39  1  0  0  0
 38 40  2  0  0  0
 28 29  1  0  0  0
 29 25  1  0  0  0
  1 25  1  0  0  0
  1  5  1  0  0  0
  5  6  2  0  0  0
  6  7  1  0  0  0
  7  8  2  0  0  0
  8 11  1  0  0  0
 11 12  1  0  0  0
  8  9  1  0  0  0
  9 10  2  0  0  0
  1  2  1  0  0  0
  2  3  1  0  0  0
  3  4  1  0  0  0
  2 13  1  0  0  0
 13 14  2  0  0  0
 14 15  1  0  0  0
 15 16  2  0  0  0
 16 17  1  0  0  0
 17 18  2  0  0  0
 17 19  1  0  0  0
 19 20  2  0  0  0
 20 21  1  0  0  0
 21 22  2  0  0  0
 22 23  1  0  0  0
 23 24  2  0  0  0
 29 30  1  0  0  0
 30 31  2  0  0  0
 30 26  1  0  0  0
  4  1  1  0  0  0
 18 13  1  0  0  0
 24 19  1  0  0  0
 10  5  1  0  0  0
 39 41  1  0  0  0
M  END
> <minimizedAffinity>
-9.43019

> <CNNscore>
0.1294109970

> <CNNaffinity>
6.6102051735

> <CNN_VS>
0.8554332256

> <CNNaffinity_variance>
0.3115473390

$$$$
[H]OC(=O)C([H])([H])C([H])([H])[C@@]1([H])O[C@]([H])(C(C([H])([H])[H])(C([H])([H])[H])C([H])([H])[H])C(=O)[C@]1([H])O[C@]1(c2c([H])c([H])c(OC([H])([H])[H])c([H])c2[H])C([H])([H])C([H])([H])[C@]1([H])c1c([H])c([H])c([H])c(-c2nc([H])c([H])c([H])c2[H])c1[H]


 41 45  0  0  0  0  0  0  0  0999 V2000
  -88.5681   30.0478   -2.4586 C   0  0  0  0  0  0  0  0  0  0  0  0
  -88.6751   31.1410   -3.4608 C   0  0  0  0  0  0  0  0  0  0  0  0
  -87.6218   30.4996   -4.3789 C   0  0  0  0  0  0  0  0  0  0  0  0
  -87.8562   29.2439   -3.6260 C   0  0  0  0  0  0  0  0  0  0  0  0
  -89.9714   29.4464   -2.3244 C   0  0  0  0  0  0  0  0  0  0  0  0
  -91.0138   30.1570   -1.8037 C   0  0  0  0  0  0  0  0  0  0  0  0
  -92.2948   29.6140   -1.6866 C   0  0  0  0  0  0  0  0  0  0  0  0
  -92.5516   28.3381   -2.0925 C   0  0  0  0  0  0  0  0  0  0  0  0
  -91.5081   27.6016   -2.6215 C   0  0  0  0  0  0  0  0  0  0  0  0
  -90.2418   28.1668   -2.7267 C   0  0  0  0  0  0  0  0  0  0  0  0
  -93.8391   27.7735   -1.9853 O   0  0  0  0  0  0  0  0  0  0  0  0
  -94.6743   27.7878   -3.1556 C   0  0  0  0  0  0  0  0  0  0  0  0
  -88.3885   32.5239   -3.2244 C   0  0  0  0  0  0  0  0  0  0  0  0
  -87.1561   32.7944   -2.5931 C   0  0  0  0  0  0  0  0  0  0  0  0
  -86.7569   34.0825   -2.3288 C   0  0  0  0  0  0  0  0  0  0  0  0
  -87.5613   35.1371   -2.6795 C   0  0  0  0  0  0  0  0  0  0  0  0
  -88.7868   34.9361   -3.3058 C   0  0  0  0  0  0  0  0  0  0  0  0
  -89.1248   33.6334   -3.5395 C   0  0  0  0  0  0  0  0  0  0  0  0
  -89.6227   36.0812   -3.6690 C   0  0  0  0  0  0  0  0  0  0  0  0
  -90.9516   36.0078   -3.9886 C   0  0  0  0  0  0  0  0  0  0  0  0
  -91.6368   37.1541   -4.2881 C   0  0  0  0  0  0  0  0  0  0  0  0
  -91.0399   38.3932   -4.2810 C   0  0  0  0  0  0  0  0  0  0  0  0
  -89.6978   38.4303   -3.9550 C   0  0  0  0  0  0  0  0  0  0  0  0
  -89.0334   37.2928   -3.6623 N   0  0  0  0  0  0  0  0  0  0  0  0
  -87.7766   29.9527   -1.4521 O   0  0  0  0  0  0  0  0  0  0  0  0
  -85.2241   29.2162    0.7631 C   0  0  0  0  0  0  0  0  0  0  0  0
  -86.2541   28.3567    1.1906 O   0  0  0  0  0  0  0  0  0  0  0  0
  -87.4045   28.8226    0.6178 C   0  0  0  0  0  0  0  0  0  0  0  0
  -86.9517   29.2795   -0.7796 C   0  0  0  0  0  0  0  0  0  0  0  0
  -85.8067   30.1497   -0.1689 C   0  0  0  0  0  0  0  0  0  0  0  0
  -85.6168   31.2503   -0.4998 O   0  0  0  0  0  0  0  0  0  0  0  0
  -83.0038   30.1319    1.5137 C   0  0  0  0  0  0  0  0  0  0  0  0
  -84.4082   29.7542    1.8780 C   0  0  0  0  0  0  0  0  0  0  0  0
  -84.3388   28.7474    2.9979 C   0  0  0  0  0  0  0  0  0  0  0  0
  -85.0931   30.9789    2.4388 C   0  0  0  0  0  0  0  0  0  0  0  0
  -88.6395   28.0605    0.7009 C   0  0  0  0  0  0  0  0  0  0  0  0
  -88.5330   26.6838    0.1453 C   0  0  0  0  0  0  0  0  0  0  0  0
  -89.1150   25.6092    0.9246 C   0  0  0  0  0  0  0  0  0  0  0  0
  -88.7180   25.4242    2.2778 O   0  0  0  0  0  0  0  0  0  0  0  0
  -89.9611   24.7939    0.5211 O   0  0  0  0  0  0  0  0  0  0  0  0
  -87.8441   25.8190    2.5967 H   0  0  0  0  0  0  0  0  0  0  0  0
 32 33  1  0  0  0
 33 34  1  0  0  0
 33 35  1  0  0  0
 33 26  1  0  0  0
 26 27  1  0  0  0
 27 28  1  0  0  0
 28 36  1  0  0  0
 36 37  1  0  0  0
 37 38  1  0  0  0
 38 39  1  0  0  0
 38 40  2  0  0  0
 28 29  1  0  0  0
 29 25  1  0  0  0
  1 25  1  0  0  0
  1  5  1  0  0  0
  5  6  2  0  0  0
  6  7  1  0  0  0
  7  8  2  0  0  0
  8 11  1  0  0  0
 11 12  1  0  0  0
  8  9  1  0  0  0
  9 10  2  0  0  0
  1  2  1  0  0  0
  2  3  1  0  0  0
  3  4  1  0  0  0
  2 13  1  0  0  0
 13 14  2  0  0  0
 14 15  1  0  0  0
 15 16  2  0  0  0
 16 17  1  0  0  0
 17 18  2  0  0  0
 17 19  1  0  0  0
 19 20  2  0  0  0
 20 21  1  0  0  0
 21 22  2  0  0  0
 22 23  1  0  0  0
 23 24  2  0  0  0
 29 30  1  0  0  0
 30 31  2  0  0  0
 30 26  1  0  0  0
  4  1  1  0  0  0
 18 13  1  0  0  0
 24 19  1  0  0  0
 10  5  1  0  0  0
 39 41  1  0  0  0
M  END
> <minimizedAffinity>
-8.36776

> <CNNscore>
0.1212626174

> <CNNaffinity>
6.6728410721

> <CNN_VS>
0.8091661930

> <CNNaffinity_variance>
0.1720913351

$$$$
[H]OC(=O)C([H])([H])C([H])([H])[C@@]1([H])O[C@]([H])(C(C([H])([H])[H])(C([H])([H])[H])C([H])([H])[H])C(=O)[C@]1([H])O[C@]1(c2c([H])c([H])c(OC([H])([H])[H])c([H])c2[H])C([H])([H])C([H])([H])[C@]1([H])c1c([H])c([H])c([H])c(-c2nc([H])c([H])c([H])c2[H])c1[H]


 41 45  0  0  0  0  0  0  0  0999 V2000
  -90.1645   27.8870   -1.5043 C   0  0  0  0  0  0  0  0  0  0  0  0
  -89.1279   28.7613   -2.1142 C   0  0  0  0  0  0  0  0  0  0  0  0
  -88.3695   27.5656   -2.7134 C   0  0  0  0  0  0  0  0  0  0  0  0
  -89.6096   26.7820   -2.4978 C   0  0  0  0  0  0  0  0  0  0  0  0
  -91.5083   28.3420   -2.0841 C   0  0  0  0  0  0  0  0  0  0  0  0
  -92.1667   27.6164   -3.0342 C   0  0  0  0  0  0  0  0  0  0  0  0
  -93.3943   28.0249   -3.5591 C   0  0  0  0  0  0  0  0  0  0  0  0
  -93.9847   29.1787   -3.1361 C   0  0  0  0  0  0  0  0  0  0  0  0
  -93.3326   29.9284   -2.1750 C   0  0  0  0  0  0  0  0  0  0  0  0
  -92.1107   29.4984   -1.6690 C   0  0  0  0  0  0  0  0  0  0  0  0
  -95.2254   29.6061   -3.6519 O   0  0  0  0  0  0  0  0  0  0  0  0
  -95.2110   30.4245   -4.8340 C   0  0  0  0  0  0  0  0  0  0  0  0
  -88.2451   29.6348   -1.4014 C   0  0  0  0  0  0  0  0  0  0  0  0
  -88.5884   31.0031   -1.4234 C   0  0  0  0  0  0  0  0  0  0  0  0
  -87.8318   31.9397   -0.7610 C   0  0  0  0  0  0  0  0  0  0  0  0
  -86.7178   31.5527   -0.0599 C   0  0  0  0  0  0  0  0  0  0  0  0
  -86.3280   30.2189    0.0013 C   0  0  0  0  0  0  0  0  0  0  0  0
  -87.1216   29.3391   -0.6783 C   0  0  0  0  0  0  0  0  0  0  0  0
  -85.1353   29.8363    0.7581 C   0  0  0  0  0  0  0  0  0  0  0  0
  -85.0554   28.7577    1.5969 C   0  0  0  0  0  0  0  0  0  0  0  0
  -83.8747   28.4850    2.2333 C   0  0  0  0  0  0  0  0  0  0  0  0
  -82.7498   29.2581    2.0634 C   0  0  0  0  0  0  0  0  0  0  0  0
  -82.8663   30.3390    1.2109 C   0  0  0  0  0  0  0  0  0  0  0  0
  -84.0362   30.5973    0.5899 N   0  0  0  0  0  0  0  0  0  0  0  0
  -90.1688   27.3293   -0.3478 O   0  0  0  0  0  0  0  0  0  0  0  0
  -89.3928   26.7206    2.9676 C   0  0  0  0  0  0  0  0  0  0  0  0
  -89.2482   25.4476    2.3836 O   0  0  0  0  0  0  0  0  0  0  0  0
  -89.8730   25.5098    1.1694 C   0  0  0  0  0  0  0  0  0  0  0  0
  -89.5384   26.9237    0.6641 C   0  0  0  0  0  0  0  0  0  0  0  0
  -90.0447   27.5639    1.9964 C   0  0  0  0  0  0  0  0  0  0  0  0
  -90.7604   28.4829    2.0132 O   0  0  0  0  0  0  0  0  0  0  0  0
  -91.3739   26.2303    4.4393 C   0  0  0  0  0  0  0  0  0  0  0  0
  -89.9459   26.6761    4.3424 C   0  0  0  0  0  0  0  0  0  0  0  0
  -89.8437   28.0370    4.9829 C   0  0  0  0  0  0  0  0  0  0  0  0
  -89.1042   25.7401    5.1783 C   0  0  0  0  0  0  0  0  0  0  0  0
  -89.7588   24.4183    0.2163 C   0  0  0  0  0  0  0  0  0  0  0  0
  -90.5058   23.1940    0.6143 C   0  0  0  0  0  0  0  0  0  0  0  0
  -89.9868   21.9225    0.1510 C   0  0  0  0  0  0  0  0  0  0  0  0
  -88.5813   21.7280    0.0529 O   0  0  0  0  0  0  0  0  0  0  0  0
  -90.6666   20.9388   -0.1862 O   0  0  0  0  0  0  0  0  0  0  0  0
  -87.9713   22.5324    0.0056 H   0  0  0  0  0  0  0  0  0  0  0  0
 32 33  1  0  0  0
 33 34  1  0  0  0
 33 35  1  0  0  0
 33 26  1  0  0  0
 26 27  1  0  0  0
 27 28  1  0  0  0
 28 36  1  0  0  0
 36 37  1  0  0  0
 37 38  1  0  0  0
 38 39  1  0  0  0
 38 40  2  0  0  0
 28 29  1  0  0  0
 29 25  1  0  0  0
  1 25  1  0  0  0
  1  5  1  0  0  0
  5  6  2  0  0  0
  6  7  1  0  0  0
  7  8  2  0  0  0
  8 11  1  0  0  0
 11 12  1  0  0  0
  8  9  1  0  0  0
  9 10  2  0  0  0
  1  2  1  0  0  0
  2  3  1  0  0  0
  3  4  1  0  0  0
  2 13  1  0  0  0
 13 14  2  0  0  0
 14 15  1  0  0  0
 15 16  2  0  0  0
 16 17  1  0  0  0
 17 18  2  0  0  0
 17 19  1  0  0  0
 19 20  2  0  0  0
 20 21  1  0  0  0
 21 22  2  0  0  0
 22 23  1  0  0  0
 23 24  2  0  0  0
 29 30  1  0  0  0
 30 31  2  0  0  0
 30 26  1  0  0  0
  4  1  1  0  0  0
 18 13  1  0  0  0
 24 19  1  0  0  0
 10  5  1  0  0  0
 39 41  1  0  0  0
M  END
> <minimizedAffinity>
-8.91219

> <CNNscore>
0.1032206863

> <CNNaffinity>
6.6349258423

> <CNN_VS>
0.6848616004

> <CNNaffinity_variance>
0.2309899777

$$$$
[H]OC(=O)C([H])([H])C([H])([H])[C@@]1([H])O[C@]([H])(C(C([H])([H])[H])(C([H])([H])[H])C([H])([H])[H])C(=O)[C@]1([H])O[C@]1(c2c([H])c([H])c(OC([H])([H])[H])c([H])c2[H])C([H])([H])C([H])([H])[C@]1([H])c1c([H])c([H])c([H])c(-c2nc([H])c([H])c([H])c2[H])c1[H]


 41 45  0  0  0  0  0  0  0  0999 V2000
  -88.0975   29.7524   -0.6986 C   0  0  0  0  0  0  0  0  0  0  0  0
  -88.2734   31.1954   -0.3856 C   0  0  0  0  0  0  0  0  0  0  0  0
  -89.7713   31.0214   -0.0861 C   0  0  0  0  0  0  0  0  0  0  0  0
  -89.4889   29.5714    0.0409 C   0  0  0  0  0  0  0  0  0  0  0  0
  -87.0315   29.2277    0.2695 C   0  0  0  0  0  0  0  0  0  0  0  0
  -87.3201   28.2963    1.2244 C   0  0  0  0  0  0  0  0  0  0  0  0
  -86.3494   27.8114    2.1030 C   0  0  0  0  0  0  0  0  0  0  0  0
  -85.0631   28.2586    2.0376 C   0  0  0  0  0  0  0  0  0  0  0  0
  -84.7513   29.2033    1.0777 C   0  0  0  0  0  0  0  0  0  0  0  0
  -85.7374   29.6693    0.2150 C   0  0  0  0  0  0  0  0  0  0  0  0
  -84.0685   27.7786    2.9140 O   0  0  0  0  0  0  0  0  0  0  0  0
  -82.6956   27.9376    2.5174 C   0  0  0  0  0  0  0  0  0  0  0  0
  -88.0449   32.2817   -1.2901 C   0  0  0  0  0  0  0  0  0  0  0  0
  -86.6951   32.6450   -1.4818 C   0  0  0  0  0  0  0  0  0  0  0  0
  -86.3438   33.6593   -2.3398 C   0  0  0  0  0  0  0  0  0  0  0  0
  -87.3128   34.3417   -3.0310 C   0  0  0  0  0  0  0  0  0  0  0  0
  -88.6606   34.0298   -2.8867 C   0  0  0  0  0  0  0  0  0  0  0  0
  -88.9426   33.0131   -2.0192 C   0  0  0  0  0  0  0  0  0  0  0  0
  -89.6714   34.7748   -3.6383 C   0  0  0  0  0  0  0  0  0  0  0  0
  -89.7272   36.1392   -3.7313 C   0  0  0  0  0  0  0  0  0  0  0  0
  -90.7078   36.7235   -4.4864 C   0  0  0  0  0  0  0  0  0  0  0  0
  -91.6520   35.9889   -5.1653 C   0  0  0  0  0  0  0  0  0  0  0  0
  -91.5667   34.6149   -5.0484 C   0  0  0  0  0  0  0  0  0  0  0  0
  -90.5952   34.0512   -4.3004 N   0  0  0  0  0  0  0  0  0  0  0  0
  -88.2329   29.1503   -1.8245 O   0  0  0  0  0  0  0  0  0  0  0  0
  -90.4433   26.7094   -2.8831 C   0  0  0  0  0  0  0  0  0  0  0  0
  -90.9262   27.8596   -3.5361 O   0  0  0  0  0  0  0  0  0  0  0  0
  -90.3486   28.9277   -2.9082 C   0  0  0  0  0  0  0  0  0  0  0  0
  -88.9246   28.4358   -2.5970 C   0  0  0  0  0  0  0  0  0  0  0  0
  -89.4766   27.1473   -1.9069 C   0  0  0  0  0  0  0  0  0  0  0  0
  -89.0909   26.7822   -0.8700 O   0  0  0  0  0  0  0  0  0  0  0  0
  -92.2698   26.2287   -1.2205 C   0  0  0  0  0  0  0  0  0  0  0  0
  -91.5194   25.7899   -2.4419 C   0  0  0  0  0  0  0  0  0  0  0  0
  -90.9472   24.4229   -2.1647 C   0  0  0  0  0  0  0  0  0  0  0  0
  -92.5127   25.6230   -3.5683 C   0  0  0  0  0  0  0  0  0  0  0  0
  -90.4858   30.2711   -3.4460 C   0  0  0  0  0  0  0  0  0  0  0  0
  -91.8974   30.7268   -3.5682 C   0  0  0  0  0  0  0  0  0  0  0  0
  -92.5536   30.5126   -4.8427 C   0  0  0  0  0  0  0  0  0  0  0  0
  -91.9233   29.7113   -5.8346 O   0  0  0  0  0  0  0  0  0  0  0  0
  -93.6568   30.9740   -5.1794 O   0  0  0  0  0  0  0  0  0  0  0  0
  -90.9266   29.5524   -5.7841 H   0  0  0  0  0  0  0  0  0  0  0  0
 32 33  1  0  0  0
 33 34  1  0  0  0
 33 35  1  0  0  0
 33 26  1  0  0  0
 26 27  1  0  0  0
 27 28  1  0  0  0
 28 36  1  0  0  0
 36 37  1  0  0  0
 37 38  1  0  0  0
 38 39  1  0  0  0
 38 40  2  0  0  0
 28 29  1  0  0  0
 29 25  1  0  0  0
  1 25  1  0  0  0
  1  5  1  0  0  0
  5  6  2  0  0  0
  6  7  1  0  0  0
  7  8  2  0  0  0
  8 11  1  0  0  0
 11 12  1  0  0  0
  8  9  1  0  0  0
  9 10  2  0  0  0
  1  2  1  0  0  0
  2  3  1  0  0  0
  3  4  1  0  0  0
  2 13  1  0  0  0
 13 14  2  0  0  0
 14 15  1  0  0  0
 15 16  2  0  0  0
 16 17  1  0  0  0
 17 18  2  0  0  0
 17 19  1  0  0  0
 19 20  2  0  0  0
 20 21  1  0  0  0
 21 22  2  0  0  0
 22 23  1  0  0  0
 23 24  2  0  0  0
 29 30  1  0  0  0
 30 31  2  0  0  0
 30 26  1  0  0  0
  4  1  1  0  0  0
 18 13  1  0  0  0
 24 19  1  0  0  0
 10  5  1  0  0  0
 39 41  1  0  0  0
M  END
> <minimizedAffinity>
-8.95905

> <CNNscore>
0.0819241256

> <CNNaffinity>
6.1954150200

> <CNN_VS>
0.5075539351

> <CNNaffinity_variance>
0.3751060069

$$$$
[H]O[C@]1([H])[C@@]([H])(C([H])([H])OP(=O)(O[H])OP(=O)(O[H])O[H])O[C@@]([H])(n2c([H])nc3c(N([H])[H])nc([H])nc32)[C@]1([H])O[H]


 34 36  0  0  0  0  0  0  0  0999 V2000
  -88.1012   30.7102   -0.5159 C   0  0  0  0  0  0  0  0  0  0  0  0
  -88.7055   29.5908    0.0203 O   0  0  0  0  0  0  0  0  0  0  0  0
  -88.6656   28.5493   -0.8645 C   0  0  0  0  0  0  0  0  0  0  0  0
  -87.6998   28.9826   -1.9788 C   0  0  0  0  0  0  0  0  0  0  0  0
  -87.9529   28.3423   -3.1580 O   0  0  0  0  0  0  0  0  0  0  0  0
  -88.1562   30.4500   -2.0050 C   0  0  0  0  0  0  0  0  0  0  0  0
  -89.4946   30.4231   -2.3761 O   0  0  0  0  0  0  0  0  0  0  0  0
  -87.1499   28.4212   -3.7333 H   0  0  0  0  0  0  0  0  0  0  0  0
  -89.8839   31.3316   -2.4122 H   0  0  0  0  0  0  0  0  0  0  0  0
  -82.3424   31.9760    0.8465 N   0  0  0  0  0  0  0  0  0  0  0  0
  -83.5342   32.2977    0.1447 C   0  0  0  0  0  0  0  0  0  0  0  0
  -83.6367   33.3702   -0.6658 N   0  0  0  0  0  0  0  0  0  0  0  0
  -84.7945   33.6157   -1.2994 C   0  0  0  0  0  0  0  0  0  0  0  0
  -85.8719   32.8358   -1.1646 N   0  0  0  0  0  0  0  0  0  0  0  0
  -85.8207   31.7628   -0.3739 C   0  0  0  0  0  0  0  0  0  0  0  0
  -86.7331   30.7983   -0.0410 N   0  0  0  0  0  0  0  0  0  0  0  0
  -86.0848   29.9822    0.8015 C   0  0  0  0  0  0  0  0  0  0  0  0
  -84.8240   30.3772    1.0153 N   0  0  0  0  0  0  0  0  0  0  0  0
  -84.6443   31.4886    0.2875 C   0  0  0  0  0  0  0  0  0  0  0  0
  -82.1827   32.4223    1.7713 H   0  0  0  0  0  0  0  0  0  0  0  0
  -81.6616   31.3112    0.4310 H   0  0  0  0  0  0  0  0  0  0  0  0
  -88.3158   27.2231   -0.2855 C   0  0  0  0  0  0  0  0  0  0  0  0
  -89.5321   26.6018    0.0752 O   0  0  0  0  0  0  0  0  0  0  0  0
  -89.5838   26.2891    1.7282 P   0  0  0  0  0  0  0  0  0  0  0  0
  -88.0346   25.7932    2.2305 O   0  0  0  0  0  0  0  0  0  0  0  0
  -90.0277   27.4884    2.5271 O   0  0  0  0  0  0  0  0  0  0  0  0
  -87.8978   24.8768    1.8446 H   0  0  0  0  0  0  0  0  0  0  0  0
  -90.6432   25.0224    2.0152 O   0  0  0  0  0  0  0  0  0  0  0  0
  -90.6959   24.5531    3.6254 P   0  0  0  0  0  0  0  0  0  0  0  0
  -89.1276   24.0802    4.0879 O   0  0  0  0  0  0  0  0  0  0  0  0
  -91.2087   25.8236    4.6198 O   0  0  0  0  0  0  0  0  0  0  0  0
  -91.6019   23.3840    3.8715 O   0  0  0  0  0  0  0  0  0  0  0  0
  -88.4565   24.4679    3.4446 H   0  0  0  0  0  0  0  0  0  0  0  0
  -90.8289   25.6832    5.5070 H   0  0  0  0  0  0  0  0  0  0  0  0
 10 11  1  0  0  0
 11 12  2  0  0  0
 12 13  1  0  0  0
 13 14  2  0  0  0
 14 15  1  0  0  0
 15 16  1  0  0  0
 16 17  1  0  0  0
 17 18  2  0  0  0
 18 19  1  0  0  0
 16  1  1  0  0  0
  1  2  1  0  0  0
  2  3  1  0  0  0
  3 22  1  0  0  0
 22 23  1  0  0  0
 23 24  1  0  0  0
 24 25  1  0  0  0
 24 26  2  0  0  0
 24 28  1  0  0  0
 28 29  1  0  0  0
 29 30  1  0  0  0
 29 31  1  0  0  0
 29 32  2  0  0  0
  3  4  1  0  0  0
  4  5  1  0  0  0
  4  6  1  0  0  0
  6  7  1  0  0  0
 19 11  1  0  0  0
  6  1  1  0  0  0
 19 15  2  0  0  0
 10 20  1  0  0  0
 10 21  1  0  0  0
 25 27  1  0  0  0
 30 33  1  0  0  0
 31 34  1  0  0  0
  5  8  1  0  0  0
  7  9  1  0  0  0
M  END
> <minimizedAffinity>
-8.61898

> <CNNscore>
0.8466632366

> <CNNaffinity>
5.5267343521

> <CNN_VS>
4.6792826653

> <CNNaffinity_variance>
0.3336450458

$$$$
[H]O[C@]1([H])[C@@]([H])(C([H])([H])OP(=O)(O[H])OP(=O)(O[H])O[H])O[C@@]([H])(n2c([H])nc3c(N([H])[H])nc([H])nc32)[C@]1([H])O[H]


 34 36  0  0  0  0  0  0  0  0999 V2000
  -88.1969   31.7603   -0.8875 C   0  0  0  0  0  0  0  0  0  0  0  0
  -88.4244   30.5699   -0.2265 O   0  0  0  0  0  0  0  0  0  0  0  0
  -88.4103   29.5203   -1.1025 C   0  0  0  0  0  0  0  0  0  0  0  0
  -87.8540   30.0816   -2.4206 C   0  0  0  0  0  0  0  0  0  0  0  0
  -88.2678   29.3600   -3.5035 O   0  0  0  0  0  0  0  0  0  0  0  0
  -88.5721   31.4365   -2.3167 C   0  0  0  0  0  0  0  0  0  0  0  0
  -89.9306   31.1471   -2.3376 O   0  0  0  0  0  0  0  0  0  0  0  0
  -87.6641   29.5642   -4.2624 H   0  0  0  0  0  0  0  0  0  0  0  0
  -90.4815   31.9654   -2.2655 H   0  0  0  0  0  0  0  0  0  0  0  0
  -82.3357   32.5332    0.4054 N   0  0  0  0  0  0  0  0  0  0  0  0
  -83.5744   31.8919    0.6712 C   0  0  0  0  0  0  0  0  0  0  0  0
  -83.7264   30.9749    1.6478 N   0  0  0  0  0  0  0  0  0  0  0  0
  -84.9268   30.4071    1.8448 C   0  0  0  0  0  0  0  0  0  0  0  0
  -85.9998   30.7106    1.1075 N   0  0  0  0  0  0  0  0  0  0  0  0
  -85.9006   31.6118    0.1292 C   0  0  0  0  0  0  0  0  0  0  0  0
  -86.7958   32.1195   -0.7732 N   0  0  0  0  0  0  0  0  0  0  0  0
  -86.0940   32.9971   -1.5034 C   0  0  0  0  0  0  0  0  0  0  0  0
  -84.8158   33.0691   -1.1129 N   0  0  0  0  0  0  0  0  0  0  0  0
  -84.6798   32.2091   -0.0935 C   0  0  0  0  0  0  0  0  0  0  0  0
  -81.6646   32.0583   -0.2304 H   0  0  0  0  0  0  0  0  0  0  0  0
  -82.1245   33.4507    0.8431 H   0  0  0  0  0  0  0  0  0  0  0  0
  -87.6820   28.3057   -0.6433 C   0  0  0  0  0  0  0  0  0  0  0  0
  -88.1288   28.0339    0.6690 O   0  0  0  0  0  0  0  0  0  0  0  0
  -87.3683   26.6695    1.2957 P   0  0  0  0  0  0  0  0  0  0  0  0
  -87.4794   25.4169    0.1481 O   0  0  0  0  0  0  0  0  0  0  0  0
  -85.9238   26.9251    1.6445 O   0  0  0  0  0  0  0  0  0  0  0  0
  -88.4431   25.1367    0.1355 H   0  0  0  0  0  0  0  0  0  0  0  0
  -88.1807   26.1718    2.6746 O   0  0  0  0  0  0  0  0  0  0  0  0
  -89.7589   25.6859    2.3762 P   0  0  0  0  0  0  0  0  0  0  0  0
  -90.5934   26.9998    1.6875 O   0  0  0  0  0  0  0  0  0  0  0  0
  -89.8068   24.3752    1.3059 O   0  0  0  0  0  0  0  0  0  0  0  0
  -90.5012   25.2912    3.6177 O   0  0  0  0  0  0  0  0  0  0  0  0
  -89.9307   27.6582    1.3107 H   0  0  0  0  0  0  0  0  0  0  0  0
  -90.6605   24.4024    0.8351 H   0  0  0  0  0  0  0  0  0  0  0  0
 10 11  1  0  0  0
 11 12  2  0  0  0
 12 13  1  0  0  0
 13 14  2  0  0  0
 14 15  1  0  0  0
 15 16  1  0  0  0
 16 17  1  0  0  0
 17 18  2  0  0  0
 18 19  1  0  0  0
 16  1  1  0  0  0
  1  2  1  0  0  0
  2  3  1  0  0  0
  3 22  1  0  0  0
 22 23  1  0  0  0
 23 24  1  0  0  0
 24 25  1  0  0  0
 24 26  2  0  0  0
 24 28  1  0  0  0
 28 29  1  0  0  0
 29 30  1  0  0  0
 29 31  1  0  0  0
 29 32  2  0  0  0
  3  4  1  0  0  0
  4  5  1  0  0  0
  4  6  1  0  0  0
  6  7  1  0  0  0
 19 11  1  0  0  0
  6  1  1  0  0  0
 19 15  2  0  0  0
 10 20  1  0  0  0
 10 21  1  0  0  0
 25 27  1  0  0  0
 30 33  1  0  0  0
 31 34  1  0  0  0
  5  8  1  0  0  0
  7  9  1  0  0  0
M  END
> <minimizedAffinity>
-7.71719

> <CNNscore>
0.8014968038

> <CNNaffinity>
5.4871492386

> <CNN_VS>
4.3979325294

> <CNNaffinity_variance>
0.3768927753

$$$$
[H]O[C@]1([H])[C@@]([H])(C([H])([H])OP(=O)(O[H])OP(=O)(O[H])O[H])O[C@@]([H])(n2c([H])nc3c(N([H])[H])nc([H])nc32)[C@]1([H])O[H]


 34 36  0  0  0  0  0  0  0  0999 V2000
  -88.1081   30.9252   -0.4237 C   0  0  0  0  0  0  0  0  0  0  0  0
  -88.6890   29.7007   -0.1616 O   0  0  0  0  0  0  0  0  0  0  0  0
  -88.7022   28.9215   -1.2850 C   0  0  0  0  0  0  0  0  0  0  0  0
  -87.7949   29.6344   -2.3003 C   0  0  0  0  0  0  0  0  0  0  0  0
  -88.1141   29.3161   -3.5892 O   0  0  0  0  0  0  0  0  0  0  0  0
  -88.2440   31.0555   -1.9246 C   0  0  0  0  0  0  0  0  0  0  0  0
  -89.6005   31.1134   -2.2187 O   0  0  0  0  0  0  0  0  0  0  0  0
  -87.3426   29.5468   -4.1668 H   0  0  0  0  0  0  0  0  0  0  0  0
  -89.9862   31.9975   -1.9996 H   0  0  0  0  0  0  0  0  0  0  0  0
  -82.2290   31.7658    0.7386 N   0  0  0  0  0  0  0  0  0  0  0  0
  -83.4330   32.2096    0.1306 C   0  0  0  0  0  0  0  0  0  0  0  0
  -83.5137   33.3535   -0.5784 N   0  0  0  0  0  0  0  0  0  0  0  0
  -84.6848   33.7138   -1.1269 C   0  0  0  0  0  0  0  0  0  0  0  0
  -85.7965   32.9818   -1.0034 N   0  0  0  0  0  0  0  0  0  0  0  0
  -85.7680   31.8417   -0.3115 C   0  0  0  0  0  0  0  0  0  0  0  0
  -86.7161   30.9000   -0.0153 N   0  0  0  0  0  0  0  0  0  0  0  0
  -86.0752   29.9800    0.7188 C   0  0  0  0  0  0  0  0  0  0  0  0
  -84.7855   30.2887    0.8993 N   0  0  0  0  0  0  0  0  0  0  0  0
  -84.5786   31.4496    0.2613 C   0  0  0  0  0  0  0  0  0  0  0  0
  -82.0006   32.1195    1.6888 H   0  0  0  0  0  0  0  0  0  0  0  0
  -81.6071   31.1061    0.2324 H   0  0  0  0  0  0  0  0  0  0  0  0
  -88.3292   27.4942   -1.0853 C   0  0  0  0  0  0  0  0  0  0  0  0
  -89.5197   26.8016   -0.7710 O   0  0  0  0  0  0  0  0  0  0  0  0
  -89.2629   25.6891    0.4656 P   0  0  0  0  0  0  0  0  0  0  0  0
  -87.7002   25.0373    0.2869 O   0  0  0  0  0  0  0  0  0  0  0  0
  -89.4136   26.3046    1.8338 O   0  0  0  0  0  0  0  0  0  0  0  0
  -87.7363   24.4486   -0.5251 H   0  0  0  0  0  0  0  0  0  0  0  0
  -90.3608   24.4322    0.3110 O   0  0  0  0  0  0  0  0  0  0  0  0
  -89.9071   23.2914   -0.8329 P   0  0  0  0  0  0  0  0  0  0  0  0
  -89.1596   24.1094   -2.1249 O   0  0  0  0  0  0  0  0  0  0  0  0
  -88.8197   22.1681   -0.1835 O   0  0  0  0  0  0  0  0  0  0  0  0
  -91.0669   22.5305   -1.4020 O   0  0  0  0  0  0  0  0  0  0  0  0
  -88.8563   25.0189   -1.8161 H   0  0  0  0  0  0  0  0  0  0  0  0
  -88.2702   21.8253   -0.9127 H   0  0  0  0  0  0  0  0  0  0  0  0
 10 11  1  0  0  0
 11 12  2  0  0  0
 12 13  1  0  0  0
 13 14  2  0  0  0
 14 15  1  0  0  0
 15 16  1  0  0  0
 16 17  1  0  0  0
 17 18  2  0  0  0
 18 19  1  0  0  0
 16  1  1  0  0  0
  1  2  1  0  0  0
  2  3  1  0  0  0
  3 22  1  0  0  0
 22 23  1  0  0  0
 23 24  1  0  0  0
 24 25  1  0  0  0
 24 26  2  0  0  0
 24 28  1  0  0  0
 28 29  1  0  0  0
 29 30  1  0  0  0
 29 31  1  0  0  0
 29 32  2  0  0  0
  3  4  1  0  0  0
  4  5  1  0  0  0
  4  6  1  0  0  0
  6  7  1  0  0  0
 19 11  1  0  0  0
  6  1  1  0  0  0
 19 15  2  0  0  0
 10 20  1  0  0  0
 10 21  1  0  0  0
 25 27  1  0  0  0
 30 33  1  0  0  0
 31 34  1  0  0  0
  5  8  1  0  0  0
  7  9  1  0  0  0
M  END
> <minimizedAffinity>
-8.25788

> <CNNscore>
0.7577764988

> <CNNaffinity>
5.5450577736

> <CNN_VS>
4.2019143105

> <CNNaffinity_variance>
0.3962014318

$$$$
[H]O[C@]1([H])[C@@]([H])(C([H])([H])OP(=O)(O[H])OP(=O)(O[H])O[H])O[C@@]([H])(n2c([H])nc3c(N([H])[H])nc([H])nc32)[C@]1([H])O[H]


 34 36  0  0  0  0  0  0  0  0999 V2000
  -88.1958   31.7215   -0.5472 C   0  0  0  0  0  0  0  0  0  0  0  0
  -88.3595   30.3917   -0.2148 O   0  0  0  0  0  0  0  0  0  0  0  0
  -88.4454   29.6194   -1.3397 C   0  0  0  0  0  0  0  0  0  0  0  0
  -88.0287   30.5295   -2.5060 C   0  0  0  0  0  0  0  0  0  0  0  0
  -88.5599   30.1192   -3.6951 O   0  0  0  0  0  0  0  0  0  0  0  0
  -88.7229   31.7888   -1.9635 C   0  0  0  0  0  0  0  0  0  0  0  0
  -90.0778   31.4850   -1.9208 O   0  0  0  0  0  0  0  0  0  0  0  0
  -88.0390   30.5350   -4.4285 H   0  0  0  0  0  0  0  0  0  0  0  0
  -90.6126   32.2404   -1.5720 H   0  0  0  0  0  0  0  0  0  0  0  0
  -82.2678   32.3879    0.4711 N   0  0  0  0  0  0  0  0  0  0  0  0
  -83.4944   31.7335    0.7606 C   0  0  0  0  0  0  0  0  0  0  0  0
  -83.5989   30.7527    1.6797 N   0  0  0  0  0  0  0  0  0  0  0  0
  -84.7904   30.1763    1.9035 C   0  0  0  0  0  0  0  0  0  0  0  0
  -85.9001   30.5323    1.2485 N   0  0  0  0  0  0  0  0  0  0  0  0
  -85.8485   31.4976    0.3295 C   0  0  0  0  0  0  0  0  0  0  0  0
  -86.7883   32.0680   -0.4859 N   0  0  0  0  0  0  0  0  0  0  0  0
  -86.1216   32.9912   -1.1925 C   0  0  0  0  0  0  0  0  0  0  0  0
  -84.8235   33.0329   -0.8688 N   0  0  0  0  0  0  0  0  0  0  0  0
  -84.6378   32.1051    0.0810 C   0  0  0  0  0  0  0  0  0  0  0  0
  -81.6356   31.9554   -0.2312 H   0  0  0  0  0  0  0  0  0  0  0  0
  -82.0270   33.2729    0.9578 H   0  0  0  0  0  0  0  0  0  0  0  0
  -87.6802   28.3427   -1.3064 C   0  0  0  0  0  0  0  0  0  0  0  0
  -88.6304   27.2990   -1.2481 O   0  0  0  0  0  0  0  0  0  0  0  0
  -88.5436   26.4846    0.2223 P   0  0  0  0  0  0  0  0  0  0  0  0
  -87.1606   25.4917    0.2065 O   0  0  0  0  0  0  0  0  0  0  0  0
  -88.4916   27.4257    1.3992 O   0  0  0  0  0  0  0  0  0  0  0  0
  -87.3602   24.7482   -0.4374 H   0  0  0  0  0  0  0  0  0  0  0  0
  -89.8837   25.4904    0.3800 O   0  0  0  0  0  0  0  0  0  0  0  0
  -89.8499   24.1630   -0.6459 P   0  0  0  0  0  0  0  0  0  0  0  0
  -89.1102   24.6415   -2.1023 O   0  0  0  0  0  0  0  0  0  0  0  0
  -88.9693   22.8852    0.0304 O   0  0  0  0  0  0  0  0  0  0  0  0
  -91.2148   23.6470   -0.9909 O   0  0  0  0  0  0  0  0  0  0  0  0
  -88.5726   25.4790   -1.9466 H   0  0  0  0  0  0  0  0  0  0  0  0
  -88.6098   22.3480   -0.6998 H   0  0  0  0  0  0  0  0  0  0  0  0
 10 11  1  0  0  0
 11 12  2  0  0  0
 12 13  1  0  0  0
 13 14  2  0  0  0
 14 15  1  0  0  0
 15 16  1  0  0  0
 16 17  1  0  0  0
 17 18  2  0  0  0
 18 19  1  0  0  0
 16  1  1  0  0  0
  1  2  1  0  0  0
  2  3  1  0  0  0
  3 22  1  0  0  0
 22 23  1  0  0  0
 23 24  1  0  0  0
 24 25  1  0  0  0
 24 26  2  0  0  0
 24 28  1  0  0  0
 28 29  1  0  0  0
 29 30  1  0  0  0
 29 31  1  0  0  0
 29 32  2  0  0  0
  3  4  1  0  0  0
  4  5  1  0  0  0
  4  6  1  0  0  0
  6  7  1  0  0  0
 19 11  1  0  0  0
  6  1  1  0  0  0
 19 15  2  0  0  0
 10 20  1  0  0  0
 10 21  1  0  0  0
 25 27  1  0  0  0
 30 33  1  0  0  0
 31 34  1  0  0  0
  5  8  1  0  0  0
  7  9  1  0  0  0
M  END
> <minimizedAffinity>
-7.91325

> <CNNscore>
0.5820922256

> <CNNaffinity>
5.3351793289

> <CNN_VS>
3.1055665016

> <CNNaffinity_variance>
0.3383170366

$$$$
[H]O[C@]1([H])[C@@]([H])(C([H])([H])OP(=O)(O[H])OP(=O)(O[H])O[H])O[C@@]([H])(n2c([H])nc3c(N([H])[H])nc([H])nc32)[C@]1([H])O[H]


 34 36  0  0  0  0  0  0  0  0999 V2000
  -87.6890   32.9060   -0.8319 C   0  0  0  0  0  0  0  0  0  0  0  0
  -88.1518   31.6054   -0.8393 O   0  0  0  0  0  0  0  0  0  0  0  0
  -88.3559   31.1722   -2.1199 C   0  0  0  0  0  0  0  0  0  0  0  0
  -87.7025   32.2259   -3.0281 C   0  0  0  0  0  0  0  0  0  0  0  0
  -88.2594   32.2486   -4.2746 O   0  0  0  0  0  0  0  0  0  0  0  0
  -88.1285   33.4344   -2.1794 C   0  0  0  0  0  0  0  0  0  0  0  0
  -89.5176   33.4367   -2.1954 O   0  0  0  0  0  0  0  0  0  0  0  0
  -87.6300   32.7063   -4.8882 H   0  0  0  0  0  0  0  0  0  0  0  0
  -89.8896   34.1820   -1.6621 H   0  0  0  0  0  0  0  0  0  0  0  0
  -81.8232   32.1178    0.4303 N   0  0  0  0  0  0  0  0  0  0  0  0
  -83.1812   31.7654    0.6490 C   0  0  0  0  0  0  0  0  0  0  0  0
  -83.5555   30.8122    1.5259 N   0  0  0  0  0  0  0  0  0  0  0  0
  -84.8582   30.5290    1.6834 C   0  0  0  0  0  0  0  0  0  0  0  0
  -85.8219   31.1563    1.0015 N   0  0  0  0  0  0  0  0  0  0  0  0
  -85.5027   32.1070    0.1222 C   0  0  0  0  0  0  0  0  0  0  0  0
  -86.2437   32.9067   -0.7054 N   0  0  0  0  0  0  0  0  0  0  0  0
  -85.3468   33.6647   -1.3513 C   0  0  0  0  0  0  0  0  0  0  0  0
  -84.0916   33.3881   -0.9783 N   0  0  0  0  0  0  0  0  0  0  0  0
  -84.1729   32.4166   -0.0580 C   0  0  0  0  0  0  0  0  0  0  0  0
  -81.2799   31.5675   -0.2640 H   0  0  0  0  0  0  0  0  0  0  0  0
  -81.4025   32.9065    0.9586 H   0  0  0  0  0  0  0  0  0  0  0  0
  -87.8888   29.7901   -2.4161 C   0  0  0  0  0  0  0  0  0  0  0  0
  -88.7356   29.2808   -3.4257 O   0  0  0  0  0  0  0  0  0  0  0  0
  -89.9193   28.2783   -2.7725 P   0  0  0  0  0  0  0  0  0  0  0  0
  -89.4773   26.6610   -3.0677 O   0  0  0  0  0  0  0  0  0  0  0  0
  -90.1098   28.5010   -1.2934 O   0  0  0  0  0  0  0  0  0  0  0  0
  -89.5961   26.5163   -4.0537 H   0  0  0  0  0  0  0  0  0  0  0  0
  -91.3733   28.5613   -3.5566 O   0  0  0  0  0  0  0  0  0  0  0  0
  -91.6241   30.1787   -3.9266 P   0  0  0  0  0  0  0  0  0  0  0  0
  -90.4346   30.6533   -5.0478 O   0  0  0  0  0  0  0  0  0  0  0  0
  -93.1557   30.4241   -4.6047 O   0  0  0  0  0  0  0  0  0  0  0  0
  -91.4988   31.0839   -2.7379 O   0  0  0  0  0  0  0  0  0  0  0  0
  -90.0477   29.8366   -5.4927 H   0  0  0  0  0  0  0  0  0  0  0  0
  -93.1083   31.2121   -5.1774 H   0  0  0  0  0  0  0  0  0  0  0  0
 10 11  1  0  0  0
 11 12  2  0  0  0
 12 13  1  0  0  0
 13 14  2  0  0  0
 14 15  1  0  0  0
 15 16  1  0  0  0
 16 17  1  0  0  0
 17 18  2  0  0  0
 18 19  1  0  0  0
 16  1  1  0  0  0
  1  2  1  0  0  0
  2  3  1  0  0  0
  3 22  1  0  0  0
 22 23  1  0  0  0
 23 24  1  0  0  0
 24 25  1  0  0  0
 24 26  2  0  0  0
 24 28  1  0  0  0
 28 29  1  0  0  0
 29 30  1  0  0  0
 29 31  1  0  0  0
 29 32  2  0  0  0
  3  4  1  0  0  0
  4  5  1  0  0  0
  4  6  1  0  0  0
  6  7  1  0  0  0
 19 11  1  0  0  0
  6  1  1  0  0  0
 19 15  2  0  0  0
 10 20  1  0  0  0
 10 21  1  0  0  0
 25 27  1  0  0  0
 30 33  1  0  0  0
 31 34  1  0  0  0
  5  8  1  0  0  0
  7  9  1  0  0  0
M  END
> <minimizedAffinity>
-7.61157

> <CNNscore>
0.5230711102

> <CNNaffinity>
5.2272062302

> <CNN_VS>
2.7342004776

> <CNNaffinity_variance>
0.1186132655

$$$$
[H]O[C@]1([H])[C@@]([H])(C([H])([H])OP(=O)(O[H])OP(=O)(O[H])O[H])O[C@@]([H])(n2c([H])nc3c(N([H])[H])nc([H])nc32)[C@]1([H])O[H]


 34 36  0  0  0  0  0  0  0  0999 V2000
  -88.2654   32.4869   -1.8451 C   0  0  0  0  0  0  0  0  0  0  0  0
  -88.6573   31.1981   -1.5433 O   0  0  0  0  0  0  0  0  0  0  0  0
  -88.5816   30.3983   -2.6496 C   0  0  0  0  0  0  0  0  0  0  0  0
  -87.8090   31.2097   -3.7016 C   0  0  0  0  0  0  0  0  0  0  0  0
  -88.1064   30.8178   -4.9754 O   0  0  0  0  0  0  0  0  0  0  0  0
  -88.4508   32.5599   -3.3446 C   0  0  0  0  0  0  0  0  0  0  0  0
  -89.8074   32.4146   -3.6063 O   0  0  0  0  0  0  0  0  0  0  0  0
  -87.3889   31.1432   -5.5765 H   0  0  0  0  0  0  0  0  0  0  0  0
  -90.3121   33.2389   -3.3961 H   0  0  0  0  0  0  0  0  0  0  0  0
  -82.6585   32.4585    0.4318 N   0  0  0  0  0  0  0  0  0  0  0  0
  -83.9791   31.9366    0.4218 C   0  0  0  0  0  0  0  0  0  0  0  0
  -84.3788   30.9470    1.2456 N   0  0  0  0  0  0  0  0  0  0  0  0
  -85.6432   30.5006    1.1830 C   0  0  0  0  0  0  0  0  0  0  0  0
  -86.5437   30.9971    0.3287 N   0  0  0  0  0  0  0  0  0  0  0  0
  -86.1970   31.9772   -0.5069 C   0  0  0  0  0  0  0  0  0  0  0  0
  -86.8759   32.6725   -1.4708 N   0  0  0  0  0  0  0  0  0  0  0  0
  -85.9818   33.5361   -1.9718 C   0  0  0  0  0  0  0  0  0  0  0  0
  -84.7865   33.4233   -1.3804 N   0  0  0  0  0  0  0  0  0  0  0  0
  -84.9054   32.4531   -0.4628 C   0  0  0  0  0  0  0  0  0  0  0  0
  -81.9379   31.9791   -0.1434 H   0  0  0  0  0  0  0  0  0  0  0  0
  -82.4384   33.2965    1.0040 H   0  0  0  0  0  0  0  0  0  0  0  0
  -88.0019   29.0448   -2.4295 C   0  0  0  0  0  0  0  0  0  0  0  0
  -88.7809   28.1397   -3.1841 O   0  0  0  0  0  0  0  0  0  0  0  0
  -90.1634   27.6828   -2.3399 P   0  0  0  0  0  0  0  0  0  0  0  0
  -89.9170   28.0094   -0.6873 O   0  0  0  0  0  0  0  0  0  0  0  0
  -91.3986   28.3955   -2.8297 O   0  0  0  0  0  0  0  0  0  0  0  0
  -89.2418   27.3383   -0.3694 H   0  0  0  0  0  0  0  0  0  0  0  0
  -90.3877   26.0301   -2.5056 O   0  0  0  0  0  0  0  0  0  0  0  0
  -89.4658   25.1246   -1.4351 P   0  0  0  0  0  0  0  0  0  0  0  0
  -89.4040   23.5255   -2.0151 O   0  0  0  0  0  0  0  0  0  0  0  0
  -87.8904   25.7324   -1.3136 O   0  0  0  0  0  0  0  0  0  0  0  0
  -90.0448   25.0725   -0.0531 O   0  0  0  0  0  0  0  0  0  0  0  0
  -89.6361   23.5146   -2.9953 H   0  0  0  0  0  0  0  0  0  0  0  0
  -87.3018   24.9950   -1.0670 H   0  0  0  0  0  0  0  0  0  0  0  0
 10 11  1  0  0  0
 11 12  2  0  0  0
 12 13  1  0  0  0
 13 14  2  0  0  0
 14 15  1  0  0  0
 15 16  1  0  0  0
 16 17  1  0  0  0
 17 18  2  0  0  0
 18 19  1  0  0  0
 16  1  1  0  0  0
  1  2  1  0  0  0
  2  3  1  0  0  0
  3 22  1  0  0  0
 22 23  1  0  0  0
 23 24  1  0  0  0
 24 25  1  0  0  0
 24 26  2  0  0  0
 24 28  1  0  0  0
 28 29  1  0  0  0
 29 30  1  0  0  0
 29 31  1  0  0  0
 29 32  2  0  0  0
  3  4  1  0  0  0
  4  5  1  0  0  0
  4  6  1  0  0  0
  6  7  1  0  0  0
 19 11  1  0  0  0
  6  1  1  0  0  0
 19 15  2  0  0  0
 10 20  1  0  0  0
 10 21  1  0  0  0
 25 27  1  0  0  0
 30 33  1  0  0  0
 31 34  1  0  0  0
  5  8  1  0  0  0
  7  9  1  0  0  0
M  END
> <minimizedAffinity>
-7.69322

> <CNNscore>
0.4652770162

> <CNNaffinity>
5.2331647873

> <CNN_VS>
2.4348711967

> <CNNaffinity_variance>
0.3294128180

$$$$
[H]O[C@]1([H])[C@@]([H])(C([H])([H])OP(=O)(O[H])OP(=O)(O[H])O[H])O[C@@]([H])(n2c([H])nc3c(N([H])[H])nc([H])nc32)[C@]1([H])O[H]


 34 36  0  0  0  0  0  0  0  0999 V2000
  -87.9183   30.2771   -0.3640 C   0  0  0  0  0  0  0  0  0  0  0  0
  -88.9507   29.3833   -0.1616 O   0  0  0  0  0  0  0  0  0  0  0  0
  -89.0837   28.5471   -1.2351 C   0  0  0  0  0  0  0  0  0  0  0  0
  -87.8303   28.7683   -2.0967 C   0  0  0  0  0  0  0  0  0  0  0  0
  -88.0438   28.4524   -3.4078 O   0  0  0  0  0  0  0  0  0  0  0  0
  -87.7628   30.2868   -1.8687 C   0  0  0  0  0  0  0  0  0  0  0  0
  -88.9348   30.8025   -2.4074 O   0  0  0  0  0  0  0  0  0  0  0  0
  -87.1634   28.3234   -3.8440 H   0  0  0  0  0  0  0  0  0  0  0  0
  -88.9876   31.7843   -2.2993 H   0  0  0  0  0  0  0  0  0  0  0  0
  -82.4761   29.1958    2.0516 N   0  0  0  0  0  0  0  0  0  0  0  0
  -83.3444   30.0500    1.3218 C   0  0  0  0  0  0  0  0  0  0  0  0
  -82.9575   31.2517    0.8486 N   0  0  0  0  0  0  0  0  0  0  0  0
  -83.8306   32.0092    0.1660 C   0  0  0  0  0  0  0  0  0  0  0  0
  -85.0886   31.6251   -0.0730 N   0  0  0  0  0  0  0  0  0  0  0  0
  -85.5193   30.4446    0.3744 C   0  0  0  0  0  0  0  0  0  0  0  0
  -86.7190   29.7909    0.2920 N   0  0  0  0  0  0  0  0  0  0  0  0
  -86.5301   28.6339    0.9413 C   0  0  0  0  0  0  0  0  0  0  0  0
  -85.2865   28.5243    1.4240 N   0  0  0  0  0  0  0  0  0  0  0  0
  -84.6431   29.6483    1.0778 C   0  0  0  0  0  0  0  0  0  0  0  0
  -82.3997   29.3364    3.0785 H   0  0  0  0  0  0  0  0  0  0  0  0
  -81.9409   28.4571    1.5557 H   0  0  0  0  0  0  0  0  0  0  0  0
  -89.3116   27.1120   -0.9115 C   0  0  0  0  0  0  0  0  0  0  0  0
  -90.2977   27.0733    0.0994 O   0  0  0  0  0  0  0  0  0  0  0  0
  -89.7640   26.1924    1.4305 P   0  0  0  0  0  0  0  0  0  0  0  0
  -88.5022   25.1668    0.9261 O   0  0  0  0  0  0  0  0  0  0  0  0
  -89.2922   27.0787    2.5555 O   0  0  0  0  0  0  0  0  0  0  0  0
  -88.9305   24.4579    0.3594 H   0  0  0  0  0  0  0  0  0  0  0  0
  -91.0151   25.2263    1.9878 O   0  0  0  0  0  0  0  0  0  0  0  0
  -90.7819   24.6776    3.5563 P   0  0  0  0  0  0  0  0  0  0  0  0
  -89.1248   24.3452    3.7573 O   0  0  0  0  0  0  0  0  0  0  0  0
  -91.2567   25.8403    4.6915 O   0  0  0  0  0  0  0  0  0  0  0  0
  -91.5274   23.4120    3.8574 O   0  0  0  0  0  0  0  0  0  0  0  0
  -88.5968   24.8295    3.0493 H   0  0  0  0  0  0  0  0  0  0  0  0
  -90.7369   25.6970    5.5041 H   0  0  0  0  0  0  0  0  0  0  0  0
 10 11  1  0  0  0
 11 12  2  0  0  0
 12 13  1  0  0  0
 13 14  2  0  0  0
 14 15  1  0  0  0
 15 16  1  0  0  0
 16 17  1  0  0  0
 17 18  2  0  0  0
 18 19  1  0  0  0
 16  1  1  0  0  0
  1  2  1  0  0  0
  2  3  1  0  0  0
  3 22  1  0  0  0
 22 23  1  0  0  0
 23 24  1  0  0  0
 24 25  1  0  0  0
 24 26  2  0  0  0
 24 28  1  0  0  0
 28 29  1  0  0  0
 29 30  1  0  0  0
 29 31  1  0  0  0
 29 32  2  0  0  0
  3  4  1  0  0  0
  4  5  1  0  0  0
  4  6  1  0  0  0
  6  7  1  0  0  0
 19 11  1  0  0  0
  6  1  1  0  0  0
 19 15  2  0  0  0
 10 20  1  0  0  0
 10 21  1  0  0  0
 25 27  1  0  0  0
 30 33  1  0  0  0
 31 34  1  0  0  0
  5  8  1  0  0  0
  7  9  1  0  0  0
M  END
> <minimizedAffinity>
-8.52359

> <CNNscore>
0.4144209921

> <CNNaffinity>
5.1277933121

> <CNN_VS>
2.1250650883

> <CNNaffinity_variance>
0.3056098521

$$$$
[H]O[C@]1([H])[C@@]([H])(C([H])([H])OP(=O)(O[H])OP(=O)(O[H])O[H])O[C@@]([H])(n2c([H])nc3c(N([H])[H])nc([H])nc32)[C@]1([H])O[H]


 34 36  0  0  0  0  0  0  0  0999 V2000
  -89.5580   30.2803   -0.1797 C   0  0  0  0  0  0  0  0  0  0  0  0
  -89.4109   28.9407    0.1195 O   0  0  0  0  0  0  0  0  0  0  0  0
  -89.5841   28.1737   -0.9989 C   0  0  0  0  0  0  0  0  0  0  0  0
  -89.5820   29.1530   -2.1834 C   0  0  0  0  0  0  0  0  0  0  0  0
  -90.2615   28.6606   -3.2606 O   0  0  0  0  0  0  0  0  0  0  0  0
  -90.3649   30.2597   -1.4591 C   0  0  0  0  0  0  0  0  0  0  0  0
  -91.6066   29.7120   -1.1621 O   0  0  0  0  0  0  0  0  0  0  0  0
  -89.9830   29.1702   -4.0635 H   0  0  0  0  0  0  0  0  0  0  0  0
  -92.1854   30.3538   -0.6813 H   0  0  0  0  0  0  0  0  0  0  0  0
  -84.6573   33.5385   -1.5902 N   0  0  0  0  0  0  0  0  0  0  0  0
  -86.0622   33.3452   -1.6629 C   0  0  0  0  0  0  0  0  0  0  0  0
  -86.8818   34.1897   -2.3207 N   0  0  0  0  0  0  0  0  0  0  0  0
  -88.2017   33.9467   -2.3495 C   0  0  0  0  0  0  0  0  0  0  0  0
  -88.7555   32.8895   -1.7473 N   0  0  0  0  0  0  0  0  0  0  0  0
  -87.9868   32.0247   -1.0836 C   0  0  0  0  0  0  0  0  0  0  0  0
  -88.2522   30.8789   -0.3835 N   0  0  0  0  0  0  0  0  0  0  0  0
  -87.0591   30.4557    0.0563 C   0  0  0  0  0  0  0  0  0  0  0  0
  -86.0648   31.2662   -0.3259 N   0  0  0  0  0  0  0  0  0  0  0  0
  -86.6291   32.2513   -1.0389 C   0  0  0  0  0  0  0  0  0  0  0  0
  -84.2850   34.1477   -0.8350 H   0  0  0  0  0  0  0  0  0  0  0  0
  -84.0356   33.0757   -2.2811 H   0  0  0  0  0  0  0  0  0  0  0  0
  -88.6129   27.0591   -1.1742 C   0  0  0  0  0  0  0  0  0  0  0  0
  -89.1602   25.9341   -0.5181 O   0  0  0  0  0  0  0  0  0  0  0  0
  -90.2258   25.1070   -1.5247 P   0  0  0  0  0  0  0  0  0  0  0  0
  -91.7436   25.0334   -0.7569 O   0  0  0  0  0  0  0  0  0  0  0  0
  -90.3615   25.7578   -2.8780 O   0  0  0  0  0  0  0  0  0  0  0  0
  -91.6360   24.3949    0.0100 H   0  0  0  0  0  0  0  0  0  0  0  0
  -89.6808   23.5353   -1.7295 O   0  0  0  0  0  0  0  0  0  0  0  0
  -89.9851   22.5495   -0.4060 P   0  0  0  0  0  0  0  0  0  0  0  0
  -89.8929   23.5083    0.9973 O   0  0  0  0  0  0  0  0  0  0  0  0
  -91.5239   21.8504   -0.5008 O   0  0  0  0  0  0  0  0  0  0  0  0
  -88.9869   21.4413   -0.2519 O   0  0  0  0  0  0  0  0  0  0  0  0
  -89.9991   24.4786    0.7487 H   0  0  0  0  0  0  0  0  0  0  0  0
  -91.8280   21.6683    0.4077 H   0  0  0  0  0  0  0  0  0  0  0  0
 10 11  1  0  0  0
 11 12  2  0  0  0
 12 13  1  0  0  0
 13 14  2  0  0  0
 14 15  1  0  0  0
 15 16  1  0  0  0
 16 17  1  0  0  0
 17 18  2  0  0  0
 18 19  1  0  0  0
 16  1  1  0  0  0
  1  2  1  0  0  0
  2  3  1  0  0  0
  3 22  1  0  0  0
 22 23  1  0  0  0
 23 24  1  0  0  0
 24 25  1  0  0  0
 24 26  2  0  0  0
 24 28  1  0  0  0
 28 29  1  0  0  0
 29 30  1  0  0  0
 29 31  1  0  0  0
 29 32  2  0  0  0
  3  4  1  0  0  0
  4  5  1  0  0  0
  4  6  1  0  0  0
  6  7  1  0  0  0
 19 11  1  0  0  0
  6  1  1  0  0  0
 19 15  2  0  0  0
 10 20  1  0  0  0
 10 21  1  0  0  0
 25 27  1  0  0  0
 30 33  1  0  0  0
 31 34  1  0  0  0
  5  8  1  0  0  0
  7  9  1  0  0  0
M  END
> <minimizedAffinity>
-6.77803

> <CNNscore>
0.4041968882

> <CNNaffinity>
4.9538283348

> <CNN_VS>
2.0023219585

> <CNNaffinity_variance>
0.3360797465

$$$$
[H]O[C@]1([H])[C@@]([H])(C([H])([H])OP(=O)(O[H])OP(=O)(O[H])O[H])O[C@@]([H])(n2c([H])nc3c(N([H])[H])nc([H])nc32)[C@]1([H])O[H]


 34 36  0  0  0  0  0  0  0  0999 V2000
  -88.8702   31.8072   -0.6748 C   0  0  0  0  0  0  0  0  0  0  0  0
  -89.8769   30.9798   -0.2191 O   0  0  0  0  0  0  0  0  0  0  0  0
  -90.2571   30.0992   -1.1933 C   0  0  0  0  0  0  0  0  0  0  0  0
  -89.1941   30.2111   -2.2977 C   0  0  0  0  0  0  0  0  0  0  0  0
  -89.6793   29.8416   -3.5194 O   0  0  0  0  0  0  0  0  0  0  0  0
  -89.0196   31.7335   -2.1784 C   0  0  0  0  0  0  0  0  0  0  0  0
  -90.2536   32.2822   -2.5039 O   0  0  0  0  0  0  0  0  0  0  0  0
  -88.9104   29.6451   -4.1130 H   0  0  0  0  0  0  0  0  0  0  0  0
  -90.2431   33.2695   -2.4460 H   0  0  0  0  0  0  0  0  0  0  0  0
  -83.1086   30.5876    0.7173 N   0  0  0  0  0  0  0  0  0  0  0  0
  -84.0720   31.4588    0.1434 C   0  0  0  0  0  0  0  0  0  0  0  0
  -83.7450   32.6409   -0.4163 N   0  0  0  0  0  0  0  0  0  0  0  0
  -84.7072   33.4162   -0.9410 C   0  0  0  0  0  0  0  0  0  0  0  0
  -85.9981   33.0688   -0.9365 N   0  0  0  0  0  0  0  0  0  0  0  0
  -86.3723   31.9089   -0.3945 C   0  0  0  0  0  0  0  0  0  0  0  0
  -87.5847   31.2925   -0.2416 N   0  0  0  0  0  0  0  0  0  0  0  0
  -87.3122   30.1391    0.3841 C   0  0  0  0  0  0  0  0  0  0  0  0
  -86.0045   29.9969    0.6314 N   0  0  0  0  0  0  0  0  0  0  0  0
  -85.4043   31.0950    0.1507 C   0  0  0  0  0  0  0  0  0  0  0  0
  -82.8397   30.7399    1.7095 H   0  0  0  0  0  0  0  0  0  0  0  0
  -82.6955   29.8256    0.1456 H   0  0  0  0  0  0  0  0  0  0  0  0
  -90.4743   28.6959   -0.7462 C   0  0  0  0  0  0  0  0  0  0  0  0
  -89.5925   27.8872   -1.4973 O   0  0  0  0  0  0  0  0  0  0  0  0
  -90.4137   26.6090   -2.2216 P   0  0  0  0  0  0  0  0  0  0  0  0
  -91.9514   26.4810   -1.5021 O   0  0  0  0  0  0  0  0  0  0  0  0
  -90.5531   26.7857   -3.7125 O   0  0  0  0  0  0  0  0  0  0  0  0
  -91.7952   26.1346   -0.5732 H   0  0  0  0  0  0  0  0  0  0  0  0
  -89.5879   25.1825   -1.9180 O   0  0  0  0  0  0  0  0  0  0  0  0
  -90.0027   24.4739   -0.4546 P   0  0  0  0  0  0  0  0  0  0  0  0
  -88.8125   23.3188   -0.0724 O   0  0  0  0  0  0  0  0  0  0  0  0
  -90.0791   25.6236    0.7856 O   0  0  0  0  0  0  0  0  0  0  0  0
  -91.3188   23.7568   -0.4966 O   0  0  0  0  0  0  0  0  0  0  0  0
  -87.9750   23.5132   -0.5972 H   0  0  0  0  0  0  0  0  0  0  0  0
  -89.8883   25.1705    1.6279 H   0  0  0  0  0  0  0  0  0  0  0  0
 10 11  1  0  0  0
 11 12  2  0  0  0
 12 13  1  0  0  0
 13 14  2  0  0  0
 14 15  1  0  0  0
 15 16  1  0  0  0
 16 17  1  0  0  0
 17 18  2  0  0  0
 18 19  1  0  0  0
 16  1  1  0  0  0
  1  2  1  0  0  0
  2  3  1  0  0  0
  3 22  1  0  0  0
 22 23  1  0  0  0
 23 24  1  0  0  0
 24 25  1  0  0  0
 24 26  2  0  0  0
 24 28  1  0  0  0
 28 29  1  0  0  0
 29 30  1  0  0  0
 29 31  1  0  0  0
 29 32  2  0  0  0
  3  4  1  0  0  0
  4  5  1  0  0  0
  4  6  1  0  0  0
  6  7  1  0  0  0
 19 11  1  0  0  0
  6  1  1  0  0  0
 19 15  2  0  0  0
 10 20  1  0  0  0
 10 21  1  0  0  0
 25 27  1  0  0  0
 30 33  1  0  0  0
 31 34  1  0  0  0
  5  8  1  0  0  0
  7  9  1  0  0  0
M  END
> <minimizedAffinity>
-6.97653

> <CNNscore>
0.3909573853

> <CNNaffinity>
5.1390166283

> <CNN_VS>
2.0091364384

> <CNNaffinity_variance>
0.2940357625

$$$$
[H]c1c([H])c([H])c(N([H])C(=O)c2c(C([H])([H])[H])c([H])n(C([H])([H])[H])c2C(=O)c2c(Cl)c([H])c([H])c([H])c2C([H])([H])[H])c([H])c1[H]


 27 29  0  0  0  0  0  0  0  0999 V2000
  -89.2446   32.8094   -2.6767 C   0  0  0  0  0  0  0  0  0  0  0  0
  -89.8684   31.5182   -2.2034 C   0  0  0  0  0  0  0  0  0  0  0  0
  -91.1845   31.1476   -2.3060 C   0  0  0  0  0  0  0  0  0  0  0  0
  -91.3961   29.9434   -1.7717 N   0  0  0  0  0  0  0  0  0  0  0  0
  -92.7140   29.3336   -1.7747 C   0  0  0  0  0  0  0  0  0  0  0  0
  -90.2111   29.4830   -1.2994 C   0  0  0  0  0  0  0  0  0  0  0  0
  -89.2701   30.4558   -1.5677 C   0  0  0  0  0  0  0  0  0  0  0  0
  -87.8225   30.3234   -1.3388 C   0  0  0  0  0  0  0  0  0  0  0  0
  -87.1404   29.8286   -2.2652 O   0  0  0  0  0  0  0  0  0  0  0  0
  -87.2608   30.7595   -0.1125 N   0  0  0  0  0  0  0  0  0  0  0  0
  -87.9726   31.1459    0.5899 H   0  0  0  0  0  0  0  0  0  0  0  0
  -85.9307   30.7474    0.3006 C   0  0  0  0  0  0  0  0  0  0  0  0
  -85.5013   29.5593    0.9151 C   0  0  0  0  0  0  0  0  0  0  0  0
  -84.2265   29.4478    1.3530 C   0  0  0  0  0  0  0  0  0  0  0  0
  -83.2892   30.4723    1.2252 C   0  0  0  0  0  0  0  0  0  0  0  0
  -83.7324   31.6399    0.6146 C   0  0  0  0  0  0  0  0  0  0  0  0
  -85.0145   31.7745    0.1661 C   0  0  0  0  0  0  0  0  0  0  0  0
  -90.1028   28.1627   -0.7319 C   0  0  0  0  0  0  0  0  0  0  0  0
  -90.7603   27.2270   -1.3550 O   0  0  0  0  0  0  0  0  0  0  0  0
  -89.3926   27.6857    0.4284 C   0  0  0  0  0  0  0  0  0  0  0  0
  -88.2459   26.9221    0.2784 C   0  0  0  0  0  0  0  0  0  0  0  0
  -87.6500   26.6394   -1.0469 C   0  0  0  0  0  0  0  0  0  0  0  0
  -87.6007   26.4111    1.3955 C   0  0  0  0  0  0  0  0  0  0  0  0
  -88.0488   26.6287    2.6763 C   0  0  0  0  0  0  0  0  0  0  0  0
  -89.1857   27.3889    2.8411 C   0  0  0  0  0  0  0  0  0  0  0  0
  -89.8252   27.8959    1.7277 C   0  0  0  0  0  0  0  0  0  0  0  0
  -91.2744   28.8626    1.9979 Cl  0  0  0  0  0  0  0  0  0  0  0  0
  1  2  1  0  0  0
  2  3  2  0  0  0
  3  4  1  0  0  0
  4  5  1  0  0  0
  4  6  1  0  0  0
  6 18  1  0  0  0
 18 19  2  0  0  0
 18 20  1  0  0  0
 20 21  2  0  0  0
 21 22  1  0  0  0
 21 23  1  0  0  0
 23 24  2  0  0  0
 24 25  1  0  0  0
 25 26  2  0  0  0
 26 27  1  0  0  0
  6  7  2  0  0  0
  7  8  1  0  0  0
  8  9  2  0  0  0
  8 10  1  0  0  0
 10 12  1  0  0  0
 12 13  2  0  0  0
 13 14  1  0  0  0
 14 15  2  0  0  0
 15 16  1  0  0  0
 16 17  2  0  0  0
  7  2  1  0  0  0
 17 12  1  0  0  0
 26 20  1  0  0  0
 10 11  1  0  0  0
M  END
> <minimizedAffinity>
-7.81798

> <CNNscore>
0.2916594148

> <CNNaffinity>
6.0005025864

> <CNN_VS>
1.7501031160

> <CNNaffinity_variance>
0.1943289042

$$$$
[H]c1c([H])c([H])c(N([H])C(=O)c2c(C([H])([H])[H])c([H])n(C([H])([H])[H])c2C(=O)c2c(Cl)c([H])c([H])c([H])c2C([H])([H])[H])c([H])c1[H]


 27 29  0  0  0  0  0  0  0  0999 V2000
  -87.2752   34.5381   -3.1650 C   0  0  0  0  0  0  0  0  0  0  0  0
  -88.2253   33.3655   -3.1119 C   0  0  0  0  0  0  0  0  0  0  0  0
  -89.1661   33.0186   -4.0469 C   0  0  0  0  0  0  0  0  0  0  0  0
  -89.8449   31.9311   -3.6768 N   0  0  0  0  0  0  0  0  0  0  0  0
  -90.8870   31.3659   -4.5155 C   0  0  0  0  0  0  0  0  0  0  0  0
  -89.3623   31.5273   -2.4755 C   0  0  0  0  0  0  0  0  0  0  0  0
  -88.3626   32.4132   -2.1295 C   0  0  0  0  0  0  0  0  0  0  0  0
  -87.4801   32.2832   -0.9592 C   0  0  0  0  0  0  0  0  0  0  0  0
  -87.7033   33.0418    0.0119 O   0  0  0  0  0  0  0  0  0  0  0  0
  -86.4398   31.3202   -0.9653 N   0  0  0  0  0  0  0  0  0  0  0  0
  -86.3622   30.7556   -1.8733 H   0  0  0  0  0  0  0  0  0  0  0  0
  -85.5140   31.0176    0.0302 C   0  0  0  0  0  0  0  0  0  0  0  0
  -85.8731   29.9639    0.8871 C   0  0  0  0  0  0  0  0  0  0  0  0
  -85.0418   29.5936    1.8876 C   0  0  0  0  0  0  0  0  0  0  0  0
  -83.8156   30.2145    2.1228 C   0  0  0  0  0  0  0  0  0  0  0  0
  -83.4775   31.2547    1.2648 C   0  0  0  0  0  0  0  0  0  0  0  0
  -84.3014   31.6456    0.2492 C   0  0  0  0  0  0  0  0  0  0  0  0
  -89.8463   30.3225   -1.8500 C   0  0  0  0  0  0  0  0  0  0  0  0
  -91.1410   30.1844   -1.8222 O   0  0  0  0  0  0  0  0  0  0  0  0
  -89.1419   29.2285   -1.2294 C   0  0  0  0  0  0  0  0  0  0  0  0
  -88.1908   28.5175   -1.9440 C   0  0  0  0  0  0  0  0  0  0  0  0
  -87.7895   28.8916   -3.3189 C   0  0  0  0  0  0  0  0  0  0  0  0
  -87.5606   27.4252   -1.3651 C   0  0  0  0  0  0  0  0  0  0  0  0
  -87.8351   27.0007   -0.0872 C   0  0  0  0  0  0  0  0  0  0  0  0
  -88.7759   27.6999    0.6364 C   0  0  0  0  0  0  0  0  0  0  0  0
  -89.4010   28.7862    0.0576 C   0  0  0  0  0  0  0  0  0  0  0  0
  -90.5951   29.6444    1.0299 Cl  0  0  0  0  0  0  0  0  0  0  0  0
  1  2  1  0  0  0
  2  3  2  0  0  0
  3  4  1  0  0  0
  4  5  1  0  0  0
  4  6  1  0  0  0
  6 18  1  0  0  0
 18 19  2  0  0  0
 18 20  1  0  0  0
 20 21  2  0  0  0
 21 22  1  0  0  0
 21 23  1  0  0  0
 23 24  2  0  0  0
 24 25  1  0  0  0
 25 26  2  0  0  0
 26 27  1  0  0  0
  6  7  2  0  0  0
  7  8  1  0  0  0
  8  9  2  0  0  0
  8 10  1  0  0  0
 10 12  1  0  0  0
 12 13  2  0  0  0
 13 14  1  0  0  0
 14 15  2  0  0  0
 15 16  1  0  0  0
 16 17  2  0  0  0
  7  2  1  0  0  0
 17 12  1  0  0  0
 26 20  1  0  0  0
 10 11  1  0  0  0
M  END
> <minimizedAffinity>
-7.12203

> <CNNscore>
0.1927834302

> <CNNaffinity>
5.8962235451

> <CNN_VS>
1.1366941929

> <CNNaffinity_variance>
0.2900605798

$$$$
[H]c1c([H])c([H])c(N([H])C(=O)c2c(C([H])([H])[H])c([H])n(C([H])([H])[H])c2C(=O)c2c(Cl)c([H])c([H])c([H])c2C([H])([H])[H])c([H])c1[H]


 27 29  0  0  0  0  0  0  0  0999 V2000
  -87.7017   32.1713   -1.9980 C   0  0  0  0  0  0  0  0  0  0  0  0
  -88.6411   31.0749   -1.5554 C   0  0  0  0  0  0  0  0  0  0  0  0
  -89.9982   31.0210   -1.7430 C   0  0  0  0  0  0  0  0  0  0  0  0
  -90.5212   29.9140   -1.2124 N   0  0  0  0  0  0  0  0  0  0  0  0
  -91.9428   29.6305   -1.2984 C   0  0  0  0  0  0  0  0  0  0  0  0
  -89.5105   29.2006   -0.6566 C   0  0  0  0  0  0  0  0  0  0  0  0
  -88.3517   29.9183   -0.8702 C   0  0  0  0  0  0  0  0  0  0  0  0
  -86.9936   29.4559   -0.5427 C   0  0  0  0  0  0  0  0  0  0  0  0
  -86.3853   28.8021   -1.4208 O   0  0  0  0  0  0  0  0  0  0  0  0
  -86.4289   29.7674    0.7196 N   0  0  0  0  0  0  0  0  0  0  0  0
  -87.0763   30.3194    1.3720 H   0  0  0  0  0  0  0  0  0  0  0  0
  -85.1691   29.4521    1.2229 C   0  0  0  0  0  0  0  0  0  0  0  0
  -85.0969   28.2602    1.9630 C   0  0  0  0  0  0  0  0  0  0  0  0
  -83.9177   27.8662    2.4955 C   0  0  0  0  0  0  0  0  0  0  0  0
  -82.7382   28.5949    2.3471 C   0  0  0  0  0  0  0  0  0  0  0  0
  -82.8293   29.7711    1.6118 C   0  0  0  0  0  0  0  0  0  0  0  0
  -84.0089   30.1883    1.0663 C   0  0  0  0  0  0  0  0  0  0  0  0
  -89.7527   27.9066   -0.0701 C   0  0  0  0  0  0  0  0  0  0  0  0
  -90.3437   27.0406   -0.8427 O   0  0  0  0  0  0  0  0  0  0  0  0
  -89.4620   27.3934    1.2453 C   0  0  0  0  0  0  0  0  0  0  0  0
  -88.4781   26.4326    1.4166 C   0  0  0  0  0  0  0  0  0  0  0  0
  -87.6291   25.9600    0.2997 C   0  0  0  0  0  0  0  0  0  0  0  0
  -88.2444   25.8943    2.6739 C   0  0  0  0  0  0  0  0  0  0  0  0
  -88.9539   26.2741    3.7879 C   0  0  0  0  0  0  0  0  0  0  0  0
  -89.9330   27.2308    3.6336 C   0  0  0  0  0  0  0  0  0  0  0  0
  -90.1629   27.7644    2.3813 C   0  0  0  0  0  0  0  0  0  0  0  0
  -91.4265   28.9857    2.2425 Cl  0  0  0  0  0  0  0  0  0  0  0  0
  1  2  1  0  0  0
  2  3  2  0  0  0
  3  4  1  0  0  0
  4  5  1  0  0  0
  4  6  1  0  0  0
  6 18  1  0  0  0
 18 19  2  0  0  0
 18 20  1  0  0  0
 20 21  2  0  0  0
 21 22  1  0  0  0
 21 23  1  0  0  0
 23 24  2  0  0  0
 24 25  1  0  0  0
 25 26  2  0  0  0
 26 27  1  0  0  0
  6  7  2  0  0  0
  7  8  1  0  0  0
  8  9  2  0  0  0
  8 10  1  0  0  0
 10 12  1  0  0  0
 12 13  2  0  0  0
 13 14  1  0  0  0
 14 15  2  0  0  0
 15 16  1  0  0  0
 16 17  2  0  0  0
  7  2  1  0  0  0
 17 12  1  0  0  0
 26 20  1  0  0  0
 10 11  1  0  0  0
M  END
> <minimizedAffinity>
-8.44444

> <CNNscore>
0.1866957992

> <CNNaffinity>
5.9768729210

> <CNN_VS>
1.1158571243

> <CNNaffinity_variance>
0.1820096076

$$$$
[H]c1c([H])c([H])c(N([H])C(=O)c2c(C([H])([H])[H])c([H])n(C([H])([H])[H])c2C(=O)c2c(Cl)c([H])c([H])c([H])c2C([H])([H])[H])c([H])c1[H]


 27 29  0  0  0  0  0  0  0  0999 V2000
  -85.8566   34.0286   -0.4347 C   0  0  0  0  0  0  0  0  0  0  0  0
  -86.6120   33.2427   -1.4797 C   0  0  0  0  0  0  0  0  0  0  0  0
  -87.0419   33.6900   -2.7025 C   0  0  0  0  0  0  0  0  0  0  0  0
  -87.6913   32.7353   -3.3713 N   0  0  0  0  0  0  0  0  0  0  0  0
  -88.2289   32.9717   -4.6994 C   0  0  0  0  0  0  0  0  0  0  0  0
  -87.7047   31.6208   -2.5987 C   0  0  0  0  0  0  0  0  0  0  0  0
  -87.0376   31.9360   -1.4328 C   0  0  0  0  0  0  0  0  0  0  0  0
  -86.7058   30.9847   -0.3602 C   0  0  0  0  0  0  0  0  0  0  0  0
  -87.6506   30.5745    0.3522 O   0  0  0  0  0  0  0  0  0  0  0  0
  -85.3634   30.5662   -0.1805 N   0  0  0  0  0  0  0  0  0  0  0  0
  -84.6634   31.0161   -0.8565 H   0  0  0  0  0  0  0  0  0  0  0  0
  -84.8370   29.6693    0.7458 C   0  0  0  0  0  0  0  0  0  0  0  0
  -83.5388   29.9610    1.1966 C   0  0  0  0  0  0  0  0  0  0  0  0
  -82.9381   29.1496    2.0967 C   0  0  0  0  0  0  0  0  0  0  0  0
  -83.5506   28.0101    2.6168 C   0  0  0  0  0  0  0  0  0  0  0  0
  -84.8347   27.7378    2.1590 C   0  0  0  0  0  0  0  0  0  0  0  0
  -85.4596   28.5423    1.2505 C   0  0  0  0  0  0  0  0  0  0  0  0
  -88.2702   30.3882   -3.0867 C   0  0  0  0  0  0  0  0  0  0  0  0
  -87.8098   29.9728   -4.2319 O   0  0  0  0  0  0  0  0  0  0  0  0
  -89.2794   29.5228   -2.5291 C   0  0  0  0  0  0  0  0  0  0  0  0
  -90.6130   29.8987   -2.5579 C   0  0  0  0  0  0  0  0  0  0  0  0
  -91.0733   31.1354   -3.2289 C   0  0  0  0  0  0  0  0  0  0  0  0
  -91.5744   29.0937   -1.9639 C   0  0  0  0  0  0  0  0  0  0  0  0
  -91.2671   27.9119   -1.3333 C   0  0  0  0  0  0  0  0  0  0  0  0
  -89.9458   27.5237   -1.2997 C   0  0  0  0  0  0  0  0  0  0  0  0
  -88.9917   28.3269   -1.8917 C   0  0  0  0  0  0  0  0  0  0  0  0
  -87.3173   27.7804   -1.8196 Cl  0  0  0  0  0  0  0  0  0  0  0  0
  1  2  1  0  0  0
  2  3  2  0  0  0
  3  4  1  0  0  0
  4  5  1  0  0  0
  4  6  1  0  0  0
  6 18  1  0  0  0
 18 19  2  0  0  0
 18 20  1  0  0  0
 20 21  2  0  0  0
 21 22  1  0  0  0
 21 23  1  0  0  0
 23 24  2  0  0  0
 24 25  1  0  0  0
 25 26  2  0  0  0
 26 27  1  0  0  0
  6  7  2  0  0  0
  7  8  1  0  0  0
  8  9  2  0  0  0
  8 10  1  0  0  0
 10 12  1  0  0  0
 12 13  2  0  0  0
 13 14  1  0  0  0
 14 15  2  0  0  0
 15 16  1  0  0  0
 16 17  2  0  0  0
  7  2  1  0  0  0
 17 12  1  0  0  0
 26 20  1  0  0  0
 10 11  1  0  0  0
M  END
> <minimizedAffinity>
-8.70877

> <CNNscore>
0.1723257452

> <CNNaffinity>
5.7189865112

> <CNN_VS>
0.9855285883

> <CNNaffinity_variance>
0.4916315079

$$$$
[H]c1c([H])c([H])c(N([H])C(=O)c2c(C([H])([H])[H])c([H])n(C([H])([H])[H])c2C(=O)c2c(Cl)c([H])c([H])c([H])c2C([H])([H])[H])c([H])c1[H]


 27 29  0  0  0  0  0  0  0  0999 V2000
  -85.9391   34.0476   -0.4203 C   0  0  0  0  0  0  0  0  0  0  0  0
  -86.6685   33.2460   -1.4719 C   0  0  0  0  0  0  0  0  0  0  0  0
  -87.1052   33.6868   -2.6946 C   0  0  0  0  0  0  0  0  0  0  0  0
  -87.7255   32.7177   -3.3703 N   0  0  0  0  0  0  0  0  0  0  0  0
  -88.2637   32.9452   -4.6997 C   0  0  0  0  0  0  0  0  0  0  0  0
  -87.7118   31.5999   -2.6025 C   0  0  0  0  0  0  0  0  0  0  0  0
  -87.0585   31.9279   -1.4324 C   0  0  0  0  0  0  0  0  0  0  0  0
  -86.7054   30.9813   -0.3625 C   0  0  0  0  0  0  0  0  0  0  0  0
  -87.6406   30.5489    0.3494 O   0  0  0  0  0  0  0  0  0  0  0  0
  -85.3542   30.5916   -0.1848 N   0  0  0  0  0  0  0  0  0  0  0  0
  -84.6645   31.0583   -0.8600 H   0  0  0  0  0  0  0  0  0  0  0  0
  -84.8078   29.7039    0.7390 C   0  0  0  0  0  0  0  0  0  0  0  0
  -83.4998   29.9993    1.1579 C   0  0  0  0  0  0  0  0  0  0  0  0
  -82.8797   29.1969    2.0528 C   0  0  0  0  0  0  0  0  0  0  0  0
  -83.4811   28.0632    2.5981 C   0  0  0  0  0  0  0  0  0  0  0  0
  -84.7752   27.7871    2.1717 C   0  0  0  0  0  0  0  0  0  0  0  0
  -85.4196   28.5826    1.2689 C   0  0  0  0  0  0  0  0  0  0  0  0
  -88.2415   30.3545   -3.0982 C   0  0  0  0  0  0  0  0  0  0  0  0
  -87.7624   29.9550   -4.2415 O   0  0  0  0  0  0  0  0  0  0  0  0
  -89.2315   29.4613   -2.5504 C   0  0  0  0  0  0  0  0  0  0  0  0
  -88.8468   28.2521   -1.9932 C   0  0  0  0  0  0  0  0  0  0  0  0
  -87.4259   27.8623   -1.8494 C   0  0  0  0  0  0  0  0  0  0  0  0
  -89.8068   27.3666   -1.5247 C   0  0  0  0  0  0  0  0  0  0  0  0
  -91.1539   27.6321   -1.5838 C   0  0  0  0  0  0  0  0  0  0  0  0
  -91.5511   28.8317   -2.1321 C   0  0  0  0  0  0  0  0  0  0  0  0
  -90.5935   29.7106   -2.5972 C   0  0  0  0  0  0  0  0  0  0  0  0
  -91.1587   31.2310   -3.2875 Cl  0  0  0  0  0  0  0  0  0  0  0  0
  1  2  1  0  0  0
  2  3  2  0  0  0
  3  4  1  0  0  0
  4  5  1  0  0  0
  4  6  1  0  0  0
  6 18  1  0  0  0
 18 19  2  0  0  0
 18 20  1  0  0  0
 20 21  2  0  0  0
 21 22  1  0  0  0
 21 23  1  0  0  0
 23 24  2  0  0  0
 24 25  1  0  0  0
 25 26  2  0  0  0
 26 27  1  0  0  0
  6  7  2  0  0  0
  7  8  1  0  0  0
  8  9  2  0  0  0
  8 10  1  0  0  0
 10 12  1  0  0  0
 12 13  2  0  0  0
 13 14  1  0  0  0
 14 15  2  0  0  0
 15 16  1  0  0  0
 16 17  2  0  0  0
  7  2  1  0  0  0
 17 12  1  0  0  0
 26 20  1  0  0  0
 10 11  1  0  0  0
M  END
> <minimizedAffinity>
-8.74650

> <CNNscore>
0.1400562078

> <CNNaffinity>
5.6269388199

> <CNN_VS>
0.7880877256

> <CNNaffinity_variance>
0.4957281053

$$$$
[H]c1c([H])c([H])c(N([H])C(=O)c2c(C([H])([H])[H])c([H])n(C([H])([H])[H])c2C(=O)c2c(Cl)c([H])c([H])c([H])c2C([H])([H])[H])c([H])c1[H]


 27 29  0  0  0  0  0  0  0  0999 V2000
  -89.0535   32.6835   -2.6731 C   0  0  0  0  0  0  0  0  0  0  0  0
  -89.7380   31.4219   -2.2038 C   0  0  0  0  0  0  0  0  0  0  0  0
  -91.0565   31.0840   -2.3694 C   0  0  0  0  0  0  0  0  0  0  0  0
  -91.3303   29.8999   -1.8187 N   0  0  0  0  0  0  0  0  0  0  0  0
  -92.6627   29.3256   -1.8791 C   0  0  0  0  0  0  0  0  0  0  0  0
  -90.1860   29.4203   -1.2713 C   0  0  0  0  0  0  0  0  0  0  0  0
  -89.2049   30.3604   -1.5109 C   0  0  0  0  0  0  0  0  0  0  0  0
  -87.7761   30.1954   -1.2000 C   0  0  0  0  0  0  0  0  0  0  0  0
  -87.0355   29.7790   -2.1201 O   0  0  0  0  0  0  0  0  0  0  0  0
  -87.2957   30.5156    0.0946 N   0  0  0  0  0  0  0  0  0  0  0  0
  -88.0514   30.8442    0.7804 H   0  0  0  0  0  0  0  0  0  0  0  0
  -85.9960   30.4550    0.5916 C   0  0  0  0  0  0  0  0  0  0  0  0
  -85.2547   31.6437    0.4869 C   0  0  0  0  0  0  0  0  0  0  0  0
  -83.9811   31.6876    0.9398 C   0  0  0  0  0  0  0  0  0  0  0  0
  -83.3453   30.5909    1.5207 C   0  0  0  0  0  0  0  0  0  0  0  0
  -84.0945   29.4238    1.6157 C   0  0  0  0  0  0  0  0  0  0  0  0
  -85.3809   29.3567    1.1645 C   0  0  0  0  0  0  0  0  0  0  0  0
  -90.1455   28.1124   -0.6671 C   0  0  0  0  0  0  0  0  0  0  0  0
  -90.8524   27.1954   -1.2633 O   0  0  0  0  0  0  0  0  0  0  0  0
  -89.4587   27.6316    0.5056 C   0  0  0  0  0  0  0  0  0  0  0  0
  -89.9286   27.9529    1.7691 C   0  0  0  0  0  0  0  0  0  0  0  0
  -91.1828   28.7107    1.9790 C   0  0  0  0  0  0  0  0  0  0  0  0
  -89.2296   27.5422    2.8952 C   0  0  0  0  0  0  0  0  0  0  0  0
  -88.0666   26.8136    2.8227 C   0  0  0  0  0  0  0  0  0  0  0  0
  -87.5892   26.4839    1.5733 C   0  0  0  0  0  0  0  0  0  0  0  0
  -88.2871   26.8939    0.4549 C   0  0  0  0  0  0  0  0  0  0  0  0
  -87.6309   26.4427   -1.1178 Cl  0  0  0  0  0  0  0  0  0  0  0  0
  1  2  1  0  0  0
  2  3  2  0  0  0
  3  4  1  0  0  0
  4  5  1  0  0  0
  4  6  1  0  0  0
  6 18  1  0  0  0
 18 19  2  0  0  0
 18 20  1  0  0  0
 20 21  2  0  0  0
 21 22  1  0  0  0
 21 23  1  0  0  0
 23 24  2  0  0  0
 24 25  1  0  0  0
 25 26  2  0  0  0
 26 27  1  0  0  0
  6  7  2  0  0  0
  7  8  1  0  0  0
  8  9  2  0  0  0
  8 10  1  0  0  0
 10 12  1  0  0  0
 12 13  2  0  0  0
 13 14  1  0  0  0
 14 15  2  0  0  0
 15 16  1  0  0  0
 16 17  2  0  0  0
  7  2  1  0  0  0
 17 12  1  0  0  0
 26 20  1  0  0  0
 10 11  1  0  0  0
M  END
> <minimizedAffinity>
-7.69295

> <CNNscore>
0.1345190555

> <CNNaffinity>
5.7251319885

> <CNN_VS>
0.7701393366

> <CNNaffinity_variance>
0.2405085266

$$$$
[H]c1c([H])c([H])c(N([H])C(=O)c2c(C([H])([H])[H])c([H])n(C([H])([H])[H])c2C(=O)c2c(Cl)c([H])c([H])c([H])c2C([H])([H])[H])c([H])c1[H]


 27 29  0  0  0  0  0  0  0  0999 V2000
  -90.6848   26.7295   -2.1028 C   0  0  0  0  0  0  0  0  0  0  0  0
  -89.9255   28.0346   -2.0767 C   0  0  0  0  0  0  0  0  0  0  0  0
  -89.3771   28.6955   -3.1455 C   0  0  0  0  0  0  0  0  0  0  0  0
  -88.7631   29.8170   -2.7637 N   0  0  0  0  0  0  0  0  0  0  0  0
  -88.1175   30.6929   -3.7254 C   0  0  0  0  0  0  0  0  0  0  0  0
  -88.8939   29.9264   -1.4183 C   0  0  0  0  0  0  0  0  0  0  0  0
  -89.6120   28.8263   -0.9969 C   0  0  0  0  0  0  0  0  0  0  0  0
  -90.0935   28.6009    0.3753 C   0  0  0  0  0  0  0  0  0  0  0  0
  -91.0578   29.2989    0.7643 O   0  0  0  0  0  0  0  0  0  0  0  0
  -89.4728   27.6184    1.1868 N   0  0  0  0  0  0  0  0  0  0  0  0
  -88.6496   27.1130    0.7217 H   0  0  0  0  0  0  0  0  0  0  0  0
  -89.7774   27.2314    2.4896 C   0  0  0  0  0  0  0  0  0  0  0  0
  -90.3292   25.9463    2.6232 C   0  0  0  0  0  0  0  0  0  0  0  0
  -90.6608   25.4775    3.8477 C   0  0  0  0  0  0  0  0  0  0  0  0
  -90.4808   26.2167    5.0163 C   0  0  0  0  0  0  0  0  0  0  0  0
  -89.9337   27.4856    4.8642 C   0  0  0  0  0  0  0  0  0  0  0  0
  -89.5925   27.9791    3.6382 C   0  0  0  0  0  0  0  0  0  0  0  0
  -88.3983   31.0844   -0.7179 C   0  0  0  0  0  0  0  0  0  0  0  0
  -89.3056   31.8409   -0.1694 O   0  0  0  0  0  0  0  0  0  0  0  0
  -87.0551   31.5694   -0.5208 C   0  0  0  0  0  0  0  0  0  0  0  0
  -86.1595   30.8464    0.2511 C   0  0  0  0  0  0  0  0  0  0  0  0
  -86.4955   29.5237    0.8247 C   0  0  0  0  0  0  0  0  0  0  0  0
  -84.8880   31.3471    0.4915 C   0  0  0  0  0  0  0  0  0  0  0  0
  -84.4574   32.5522   -0.0094 C   0  0  0  0  0  0  0  0  0  0  0  0
  -85.3357   33.2804   -0.7813 C   0  0  0  0  0  0  0  0  0  0  0  0
  -86.6000   32.7795   -1.0187 C   0  0  0  0  0  0  0  0  0  0  0  0
  -87.6815   33.7528   -2.0141 Cl  0  0  0  0  0  0  0  0  0  0  0  0
  1  2  1  0  0  0
  2  3  2  0  0  0
  3  4  1  0  0  0
  4  5  1  0  0  0
  4  6  1  0  0  0
  6 18  1  0  0  0
 18 19  2  0  0  0
 18 20  1  0  0  0
 20 21  2  0  0  0
 21 22  1  0  0  0
 21 23  1  0  0  0
 23 24  2  0  0  0
 24 25  1  0  0  0
 25 26  2  0  0  0
 26 27  1  0  0  0
  6  7  2  0  0  0
  7  8  1  0  0  0
  8  9  2  0  0  0
  8 10  1  0  0  0
 10 12  1  0  0  0
 12 13  2  0  0  0
 13 14  1  0  0  0
 14 15  2  0  0  0
 15 16  1  0  0  0
 16 17  2  0  0  0
  7  2  1  0  0  0
 17 12  1  0  0  0
 26 20  1  0  0  0
 10 11  1  0  0  0
M  END
> <minimizedAffinity>
-7.83146

> <CNNscore>
0.1284454614

> <CNNaffinity>
5.5624504089

> <CNN_VS>
0.7144715190

> <CNNaffinity_variance>
0.2912046611

$$$$
[H]c1c([H])c([H])c(N([H])C(=O)c2c(C([H])([H])[H])c([H])n(C([H])([H])[H])c2C(=O)c2c(Cl)c([H])c([H])c([H])c2C([H])([H])[H])c([H])c1[H]


 27 29  0  0  0  0  0  0  0  0999 V2000
  -89.2711   35.6682   -3.9112 C   0  0  0  0  0  0  0  0  0  0  0  0
  -89.9865   34.3432   -4.0260 C   0  0  0  0  0  0  0  0  0  0  0  0
  -91.2279   34.1157   -4.5618 C   0  0  0  0  0  0  0  0  0  0  0  0
  -91.5617   32.8258   -4.4910 N   0  0  0  0  0  0  0  0  0  0  0  0
  -92.8289   32.3410   -5.0087 C   0  0  0  0  0  0  0  0  0  0  0  0
  -90.5365   32.1618   -3.9018 C   0  0  0  0  0  0  0  0  0  0  0  0
  -89.5656   33.0998   -3.6166 C   0  0  0  0  0  0  0  0  0  0  0  0
  -88.2261   32.8014   -3.0855 C   0  0  0  0  0  0  0  0  0  0  0  0
  -87.3118   32.6051   -3.9185 O   0  0  0  0  0  0  0  0  0  0  0  0
  -88.0180   32.7579   -1.6840 N   0  0  0  0  0  0  0  0  0  0  0  0
  -88.8993   32.9302   -1.0983 H   0  0  0  0  0  0  0  0  0  0  0  0
  -86.8434   32.5179   -0.9751 C   0  0  0  0  0  0  0  0  0  0  0  0
  -86.8289   31.3365   -0.2151 C   0  0  0  0  0  0  0  0  0  0  0  0
  -85.7342   31.0134    0.5105 C   0  0  0  0  0  0  0  0  0  0  0  0
  -84.5885   31.8073    0.5476 C   0  0  0  0  0  0  0  0  0  0  0  0
  -84.6215   32.9721   -0.2106 C   0  0  0  0  0  0  0  0  0  0  0  0
  -85.7157   33.3180   -0.9495 C   0  0  0  0  0  0  0  0  0  0  0  0
  -90.5690   30.7283   -3.7561 C   0  0  0  0  0  0  0  0  0  0  0  0
  -90.7243   30.0542   -4.8596 O   0  0  0  0  0  0  0  0  0  0  0  0
  -90.4690   29.8926   -2.5857 C   0  0  0  0  0  0  0  0  0  0  0  0
  -91.5710   29.7062   -1.7663 C   0  0  0  0  0  0  0  0  0  0  0  0
  -92.9027   30.2657   -2.0900 C   0  0  0  0  0  0  0  0  0  0  0  0
  -91.4546   28.9535   -0.6065 C   0  0  0  0  0  0  0  0  0  0  0  0
  -90.2746   28.3661   -0.2176 C   0  0  0  0  0  0  0  0  0  0  0  0
  -89.1714   28.5399   -1.0241 C   0  0  0  0  0  0  0  0  0  0  0  0
  -89.2905   29.2894   -2.1773 C   0  0  0  0  0  0  0  0  0  0  0  0
  -87.8472   29.4776   -3.1718 Cl  0  0  0  0  0  0  0  0  0  0  0  0
  1  2  1  0  0  0
  2  3  2  0  0  0
  3  4  1  0  0  0
  4  5  1  0  0  0
  4  6  1  0  0  0
  6 18  1  0  0  0
 18 19  2  0  0  0
 18 20  1  0  0  0
 20 21  2  0  0  0
 21 22  1  0  0  0
 21 23  1  0  0  0
 23 24  2  0  0  0
 24 25  1  0  0  0
 25 26  2  0  0  0
 26 27  1  0  0  0
  6  7  2  0  0  0
  7  8  1  0  0  0
  8  9  2  0  0  0
  8 10  1  0  0  0
 10 12  1  0  0  0
 12 13  2  0  0  0
 13 14  1  0  0  0
 14 15  2  0  0  0
 15 16  1  0  0  0
 16 17  2  0  0  0
  7  2  1  0  0  0
 17 12  1  0  0  0
 26 20  1  0  0  0
 10 11  1  0  0  0
M  END
> <minimizedAffinity>
-6.94899

> <CNNscore>
0.1179217324

> <CNNaffinity>
5.5448212624

> <CNN_VS>
0.6538549066

> <CNNaffinity_variance>
0.1973007917

$$$$
[H]c1c([H])c([H])c(N([H])C(=O)c2c(C([H])([H])[H])c([H])n(C([H])([H])[H])c2C(=O)c2c(Cl)c([H])c([H])c([H])c2C([H])([H])[H])c([H])c1[H]


 27 29  0  0  0  0  0  0  0  0999 V2000
  -85.8436   33.6645   -0.2007 C   0  0  0  0  0  0  0  0  0  0  0  0
  -86.6143   33.2086   -1.4167 C   0  0  0  0  0  0  0  0  0  0  0  0
  -86.9288   33.9521   -2.5250 C   0  0  0  0  0  0  0  0  0  0  0  0
  -87.6318   33.2400   -3.4077 N   0  0  0  0  0  0  0  0  0  0  0  0
  -88.0685   33.8133   -4.6684 C   0  0  0  0  0  0  0  0  0  0  0  0
  -87.7992   31.9940   -2.8991 C   0  0  0  0  0  0  0  0  0  0  0  0
  -87.1699   31.9768   -1.6714 C   0  0  0  0  0  0  0  0  0  0  0  0
  -86.9947   30.7870   -0.8233 C   0  0  0  0  0  0  0  0  0  0  0  0
  -85.8269   30.3613   -0.6703 O   0  0  0  0  0  0  0  0  0  0  0  0
  -88.1237   30.1841   -0.2141 N   0  0  0  0  0  0  0  0  0  0  0  0
  -89.0591   30.6512   -0.4512 H   0  0  0  0  0  0  0  0  0  0  0  0
  -88.1830   29.0793    0.6319 C   0  0  0  0  0  0  0  0  0  0  0  0
  -89.4697   28.5640    0.8610 C   0  0  0  0  0  0  0  0  0  0  0  0
  -89.6341   27.4921    1.6693 C   0  0  0  0  0  0  0  0  0  0  0  0
  -88.5705   26.8521    2.3045 C   0  0  0  0  0  0  0  0  0  0  0  0
  -87.3052   27.3761    2.0658 C   0  0  0  0  0  0  0  0  0  0  0  0
  -87.1162   28.4574    1.2546 C   0  0  0  0  0  0  0  0  0  0  0  0
  -88.4566   30.9643   -3.6637 C   0  0  0  0  0  0  0  0  0  0  0  0
  -87.9293   30.7032   -4.8256 O   0  0  0  0  0  0  0  0  0  0  0  0
  -89.6199   30.1644   -3.3718 C   0  0  0  0  0  0  0  0  0  0  0  0
  -90.8875   30.7152   -3.4734 C   0  0  0  0  0  0  0  0  0  0  0  0
  -91.1158   32.0929   -3.9645 C   0  0  0  0  0  0  0  0  0  0  0  0
  -92.0014   29.9622   -3.1304 C   0  0  0  0  0  0  0  0  0  0  0  0
  -91.9125   28.6651   -2.6852 C   0  0  0  0  0  0  0  0  0  0  0  0
  -90.6590   28.1032   -2.5823 C   0  0  0  0  0  0  0  0  0  0  0  0
  -89.5529   28.8550   -2.9244 C   0  0  0  0  0  0  0  0  0  0  0  0
  -87.9742   28.0848   -2.7746 Cl  0  0  0  0  0  0  0  0  0  0  0  0
  1  2  1  0  0  0
  2  3  2  0  0  0
  3  4  1  0  0  0
  4  5  1  0  0  0
  4  6  1  0  0  0
  6 18  1  0  0  0
 18 19  2  0  0  0
 18 20  1  0  0  0
 20 21  2  0  0  0
 21 22  1  0  0  0
 21 23  1  0  0  0
 23 24  2  0  0  0
 24 25  1  0  0  0
 25 26  2  0  0  0
 26 27  1  0  0  0
  6  7  2  0  0  0
  7  8  1  0  0  0
  8  9  2  0  0  0
  8 10  1  0  0  0
 10 12  1  0  0  0
 12 13  2  0  0  0
 13 14  1  0  0  0
 14 15  2  0  0  0
 15 16  1  0  0  0
 16 17  2  0  0  0
  7  2  1  0  0  0
 17 12  1  0  0  0
 26 20  1  0  0  0
 10 11  1  0  0  0
M  END
> <minimizedAffinity>
-6.78299

> <CNNscore>
0.1089837179

> <CNNaffinity>
5.4327650070

> <CNN_VS>
0.5920829177

> <CNNaffinity_variance>
0.4064644873

$$$$
[H]c1nc(N2C([H])([H])C([H])([H])N(C3([H])C([H])([H])C([H])([H])N(c4c([H])c([H])c(N([H])c5nc([H])c(Cl)c(N([H])c6c([H])c([H])c([H])c([H])c6S(=O)(=O)C([H])(C([H])([H])[H])C([H])([H])[H])n5)c(OC([H])([H])[H])c4[H])C([H])([H])C3([H])[H])C([H])([H])C2([H])[H])c2c([H])c([H])n([H])c2n1


 53 59  0  0  0  0  0  0  0  0999 V2000
  -87.1534   32.7649   -2.0018 C   0  0  0  0  0  0  0  0  0  0  0  0
  -87.5422   31.5678   -1.4635 C   0  0  0  0  0  0  0  0  0  0  0  0
  -88.1133   30.6046   -2.2623 C   0  0  0  0  0  0  0  0  0  0  0  0
  -88.2669   30.8969   -3.5900 C   0  0  0  0  0  0  0  0  0  0  0  0
  -87.8777   32.1051   -4.1453 C   0  0  0  0  0  0  0  0  0  0  0  0
  -87.3087   33.0799   -3.3672 C   0  0  0  0  0  0  0  0  0  0  0  0
  -88.6035   29.3471   -1.7426 N   0  0  0  0  0  0  0  0  0  0  0  0
  -88.1978   28.1718   -2.4514 C   0  0  0  0  0  0  0  0  0  0  0  0
  -89.3569   27.2233   -2.5989 C   0  0  0  0  0  0  0  0  0  0  0  0
  -89.8343   26.9158   -1.1983 C   0  0  0  0  0  0  0  0  0  0  0  0
  -90.4410   28.1588   -0.5710 C   0  0  0  0  0  0  0  0  0  0  0  0
  -89.4383   29.2950   -0.5844 C   0  0  0  0  0  0  0  0  0  0  0  0
  -90.6167   25.8000   -0.9992 N   0  0  0  0  0  0  0  0  0  0  0  0
  -90.5093   24.6451   -1.7951 C   0  0  0  0  0  0  0  0  0  0  0  0
  -90.6524   23.3589   -0.9820 C   0  0  0  0  0  0  0  0  0  0  0  0
  -91.3182   23.7161    0.2663 N   0  0  0  0  0  0  0  0  0  0  0  0
  -92.4457   24.6184    0.1209 C   0  0  0  0  0  0  0  0  0  0  0  0
  -91.8648   25.9569   -0.3035 C   0  0  0  0  0  0  0  0  0  0  0  0
  -90.8953   23.2267    1.4983 C   0  0  0  0  0  0  0  0  0  0  0  0
  -90.5326   24.1100    2.4600 N   0  0  0  0  0  0  0  0  0  0  0  0
  -90.1099   23.6510    3.6569 C   0  0  0  0  0  0  0  0  0  0  0  0
  -90.0418   22.3338    3.9156 N   0  0  0  0  0  0  0  0  0  0  0  0
  -90.3959   21.4382    2.9793 C   0  0  0  0  0  0  0  0  0  0  0  0
  -90.4336   20.0896    2.9507 N   0  0  0  0  0  0  0  0  0  0  0  0
  -90.8691   19.6620    1.7654 C   0  0  0  0  0  0  0  0  0  0  0  0
  -91.1219   20.7799    1.0012 C   0  0  0  0  0  0  0  0  0  0  0  0
  -90.8272   21.8911    1.7573 C   0  0  0  0  0  0  0  0  0  0  0  0
  -90.1563   19.4592    3.7543 H   0  0  0  0  0  0  0  0  0  0  0  0
  -85.4562   33.3993   -0.4018 C   0  0  0  0  0  0  0  0  0  0  0  0
  -86.5726   33.7388   -1.1849 O   0  0  0  0  0  0  0  0  0  0  0  0
  -86.8875   34.3428   -3.8314 N   0  0  0  0  0  0  0  0  0  0  0  0
  -86.0705   34.7767   -3.3036 H   0  0  0  0  0  0  0  0  0  0  0  0
  -87.3903   35.0989   -4.8908 C   0  0  0  0  0  0  0  0  0  0  0  0
  -88.5136   34.8507   -5.5569 N   0  0  0  0  0  0  0  0  0  0  0  0
  -88.9813   35.6120   -6.5437 C   0  0  0  0  0  0  0  0  0  0  0  0
  -88.2928   36.7316   -6.9299 C   0  0  0  0  0  0  0  0  0  0  0  0
  -88.8483   37.7738   -8.2164 Cl  0  0  0  0  0  0  0  0  0  0  0  0
  -87.0975   37.0456   -6.2630 C   0  0  0  0  0  0  0  0  0  0  0  0
  -86.7199   36.2107   -5.2854 N   0  0  0  0  0  0  0  0  0  0  0  0
  -86.4367   38.2131   -6.6573 N   0  0  0  0  0  0  0  0  0  0  0  0
  -86.6762   38.5884   -7.6214 H   0  0  0  0  0  0  0  0  0  0  0  0
  -85.4938   38.9530   -5.9363 C   0  0  0  0  0  0  0  0  0  0  0  0
  -84.1293   38.7167   -5.9710 C   0  0  0  0  0  0  0  0  0  0  0  0
  -83.2727   39.5178   -5.2368 C   0  0  0  0  0  0  0  0  0  0  0  0
  -83.6973   40.5597   -4.4550 C   0  0  0  0  0  0  0  0  0  0  0  0
  -85.0504   40.7847   -4.4282 C   0  0  0  0  0  0  0  0  0  0  0  0
  -85.9564   40.0170   -5.1416 C   0  0  0  0  0  0  0  0  0  0  0  0
  -87.6593   40.3611   -5.0317 S   0  0  0  0  0  0  0  0  0  0  0  0
  -87.9260   41.6774   -4.3526 O   0  0  0  0  0  0  0  0  0  0  0  0
  -88.2802   40.4090   -6.3958 O   0  0  0  0  0  0  0  0  0  0  0  0
  -88.4800   39.1320   -4.0204 C   0  0  0  0  0  0  0  0  0  0  0  0
  -87.9069   39.1098   -2.6484 C   0  0  0  0  0  0  0  0  0  0  0  0
  -89.9829   39.4971   -3.9630 C   0  0  0  0  0  0  0  0  0  0  0  0
 29 30  1  0  0  0
 30  1  1  0  0  0
  1  2  2  0  0  0
  2  3  1  0  0  0
  3  4  2  0  0  0
  4  5  1  0  0  0
  5  6  2  0  0  0
  6 31  1  0  0  0
 31 33  1  0  0  0
 33 34  2  0  0  0
 34 35  1  0  0  0
 35 36  2  0  0  0
 36 37  1  0  0  0
 36 38  1  0  0  0
 38 40  1  0  0  0
 40 42  1  0  0  0
 42 43  2  0  0  0
 43 44  1  0  0  0
 44 45  2  0  0  0
 45 46  1  0  0  0
 46 47  2  0  0  0
 47 48  1  0  0  0
 48 49  2  0  0  0
 48 50  2  0  0  0
 48 51  1  0  0  0
 51 52  1  0  0  0
 51 53  1  0  0  0
 38 39  2  0  0  0
  3  7  1  0  0  0
  7  8  1  0  0  0
  8  9  1  0  0  0
  9 10  1  0  0  0
 10 11  1  0  0  0
 11 12  1  0  0  0
 10 13  1  0  0  0
 13 14  1  0  0  0
 14 15  1  0  0  0
 15 16  1  0  0  0
 16 17  1  0  0  0
 17 18  1  0  0  0
 16 19  1  0  0  0
 19 20  2  0  0  0
 20 21  1  0  0  0
 21 22  2  0  0  0
 22 23  1  0  0  0
 23 24  1  0  0  0
 24 25  1  0  0  0
 25 26  2  0  0  0
 26 27  1  0  0  0
  6  1  1  0  0  0
 39 33  1  0  0  0
 12  7  1  0  0  0
 18 13  1  0  0  0
 27 19  1  0  0  0
 47 42  1  0  0  0
 27 23  2  0  0  0
 31 32  1  0  0  0
 40 41  1  0  0  0
 24 28  1  0  0  0
M  END
> <minimizedAffinity>
-8.77638

> <CNNscore>
0.0872485116

> <CNNaffinity>
6.7032113075

> <CNN_VS>
0.5848451853

> <CNNaffinity_variance>
0.3054002821

$$$$
[H]c1nc(N2C([H])([H])C([H])([H])N(C3([H])C([H])([H])C([H])([H])N(c4c([H])c([H])c(N([H])c5nc([H])c(Cl)c(N([H])c6c([H])c([H])c([H])c([H])c6S(=O)(=O)C([H])(C([H])([H])[H])C([H])([H])[H])n5)c(OC([H])([H])[H])c4[H])C([H])([H])C3([H])[H])C([H])([H])C2([H])[H])c2c([H])c([H])n([H])c2n1


 53 59  0  0  0  0  0  0  0  0999 V2000
  -90.6582   35.1633   -7.4485 C   0  0  0  0  0  0  0  0  0  0  0  0
  -90.6196   34.0634   -6.6344 C   0  0  0  0  0  0  0  0  0  0  0  0
  -89.6340   33.9433   -5.6825 C   0  0  0  0  0  0  0  0  0  0  0  0
  -88.7183   34.9557   -5.5923 C   0  0  0  0  0  0  0  0  0  0  0  0
  -88.7474   36.0729   -6.4112 C   0  0  0  0  0  0  0  0  0  0  0  0
  -89.7192   36.2119   -7.3680 C   0  0  0  0  0  0  0  0  0  0  0  0
  -89.5009   32.7773   -4.8372 N   0  0  0  0  0  0  0  0  0  0  0  0
  -90.2174   32.8124   -3.5988 C   0  0  0  0  0  0  0  0  0  0  0  0
  -89.3621   32.2739   -2.4837 C   0  0  0  0  0  0  0  0  0  0  0  0
  -88.9751   30.8696   -2.8862 C   0  0  0  0  0  0  0  0  0  0  0  0
  -88.0474   30.9100   -4.0881 C   0  0  0  0  0  0  0  0  0  0  0  0
  -88.7025   31.6599   -5.2304 C   0  0  0  0  0  0  0  0  0  0  0  0
  -88.5249   30.0057   -1.9126 N   0  0  0  0  0  0  0  0  0  0  0  0
  -88.0508   28.7137   -2.2038 C   0  0  0  0  0  0  0  0  0  0  0  0
  -86.8440   28.3271   -1.3495 C   0  0  0  0  0  0  0  0  0  0  0  0
  -86.8462   29.2076   -0.1860 N   0  0  0  0  0  0  0  0  0  0  0  0
  -88.1457   29.4027    0.4302 C   0  0  0  0  0  0  0  0  0  0  0  0
  -88.9668   30.2114   -0.5603 C   0  0  0  0  0  0  0  0  0  0  0  0
  -85.6862   29.8128    0.2878 C   0  0  0  0  0  0  0  0  0  0  0  0
  -85.3785   31.0594   -0.1459 N   0  0  0  0  0  0  0  0  0  0  0  0
  -84.2511   31.6559    0.2960 C   0  0  0  0  0  0  0  0  0  0  0  0
  -83.4263   31.0387    1.1593 N   0  0  0  0  0  0  0  0  0  0  0  0
  -83.7093   29.8033    1.6042 C   0  0  0  0  0  0  0  0  0  0  0  0
  -83.0886   28.9562    2.4518 N   0  0  0  0  0  0  0  0  0  0  0  0
  -83.7842   27.8250    2.5703 C   0  0  0  0  0  0  0  0  0  0  0  0
  -84.8965   27.9493    1.7672 C   0  0  0  0  0  0  0  0  0  0  0  0
  -84.8523   29.1844    1.1625 C   0  0  0  0  0  0  0  0  0  0  0  0
  -82.1784   29.1594    2.9518 H   0  0  0  0  0  0  0  0  0  0  0  0
  -91.7764   34.2934   -9.4071 C   0  0  0  0  0  0  0  0  0  0  0  0
  -91.6630   35.2799   -8.4127 O   0  0  0  0  0  0  0  0  0  0  0  0
  -89.8318   37.3022   -8.2549 N   0  0  0  0  0  0  0  0  0  0  0  0
  -90.8101   37.4870   -8.6332 H   0  0  0  0  0  0  0  0  0  0  0  0
  -88.8387   38.1754   -8.7000 C   0  0  0  0  0  0  0  0  0  0  0  0
  -88.6288   38.5329   -9.9630 N   0  0  0  0  0  0  0  0  0  0  0  0
  -87.6905   39.3944  -10.3500 C   0  0  0  0  0  0  0  0  0  0  0  0
  -86.8666   39.9725   -9.4208 C   0  0  0  0  0  0  0  0  0  0  0  0
  -85.6154   41.1093   -9.8586 Cl  0  0  0  0  0  0  0  0  0  0  0  0
  -87.0400   39.6331   -8.0691 C   0  0  0  0  0  0  0  0  0  0  0  0
  -88.0144   38.7561   -7.7920 N   0  0  0  0  0  0  0  0  0  0  0  0
  -86.2063   40.2663   -7.1421 N   0  0  0  0  0  0  0  0  0  0  0  0
  -86.4684   41.2595   -6.8728 H   0  0  0  0  0  0  0  0  0  0  0  0
  -85.0634   39.7519   -6.5214 C   0  0  0  0  0  0  0  0  0  0  0  0
  -83.9268   39.3449   -7.2008 C   0  0  0  0  0  0  0  0  0  0  0  0
  -82.8364   38.8676   -6.4952 C   0  0  0  0  0  0  0  0  0  0  0  0
  -82.8058   38.7681   -5.1290 C   0  0  0  0  0  0  0  0  0  0  0  0
  -83.9365   39.1740   -4.4665 C   0  0  0  0  0  0  0  0  0  0  0  0
  -85.0581   39.6604   -5.1181 C   0  0  0  0  0  0  0  0  0  0  0  0
  -86.4579   40.1332   -4.1975 S   0  0  0  0  0  0  0  0  0  0  0  0
  -86.1487   40.2702   -2.7311 O   0  0  0  0  0  0  0  0  0  0  0  0
  -86.9935   41.4469   -4.6831 O   0  0  0  0  0  0  0  0  0  0  0  0
  -87.7256   38.8723   -4.2981 C   0  0  0  0  0  0  0  0  0  0  0  0
  -87.7913   38.0886   -3.0361 C   0  0  0  0  0  0  0  0  0  0  0  0
  -89.0766   39.5827   -4.5538 C   0  0  0  0  0  0  0  0  0  0  0  0
 29 30  1  0  0  0
 30  1  1  0  0  0
  1  2  2  0  0  0
  2  3  1  0  0  0
  3  4  2  0  0  0
  4  5  1  0  0  0
  5  6  2  0  0  0
  6 31  1  0  0  0
 31 33  1  0  0  0
 33 34  2  0  0  0
 34 35  1  0  0  0
 35 36  2  0  0  0
 36 37  1  0  0  0
 36 38  1  0  0  0
 38 40  1  0  0  0
 40 42  1  0  0  0
 42 43  2  0  0  0
 43 44  1  0  0  0
 44 45  2  0  0  0
 45 46  1  0  0  0
 46 47  2  0  0  0
 47 48  1  0  0  0
 48 49  2  0  0  0
 48 50  2  0  0  0
 48 51  1  0  0  0
 51 52  1  0  0  0
 51 53  1  0  0  0
 38 39  2  0  0  0
  3  7  1  0  0  0
  7  8  1  0  0  0
  8  9  1  0  0  0
  9 10  1  0  0  0
 10 11  1  0  0  0
 11 12  1  0  0  0
 10 13  1  0  0  0
 13 14  1  0  0  0
 14 15  1  0  0  0
 15 16  1  0  0  0
 16 17  1  0  0  0
 17 18  1  0  0  0
 16 19  1  0  0  0
 19 20  2  0  0  0
 20 21  1  0  0  0
 21 22  2  0  0  0
 22 23  1  0  0  0
 23 24  1  0  0  0
 24 25  1  0  0  0
 25 26  2  0  0  0
 26 27  1  0  0  0
  6  1  1  0  0  0
 39 33  1  0  0  0
 12  7  1  0  0  0
 18 13  1  0  0  0
 27 19  1  0  0  0
 47 42  1  0  0  0
 27 23  2  0  0  0
 31 32  1  0  0  0
 40 41  1  0  0  0
 24 28  1  0  0  0
M  END
> <minimizedAffinity>
-9.13494

> <CNNscore>
0.0743806660

> <CNNaffinity>
7.3848676682

> <CNN_VS>
0.5492913723

> <CNNaffinity_variance>
0.4603912830

$$$$
[H]c1nc(N2C([H])([H])C([H])([H])N(C3([H])C([H])([H])C([H])([H])N(c4c([H])c([H])c(N([H])c5nc([H])c(Cl)c(N([H])c6c([H])c([H])c([H])c([H])c6S(=O)(=O)C([H])(C([H])([H])[H])C([H])([H])[H])n5)c(OC([H])([H])[H])c4[H])C([H])([H])C3([H])[H])C([H])([H])C2([H])[H])c2c([H])c([H])n([H])c2n1


 53 59  0  0  0  0  0  0  0  0999 V2000
  -86.9946   32.7579   -1.9386 C   0  0  0  0  0  0  0  0  0  0  0  0
  -87.5132   31.6197   -1.3820 C   0  0  0  0  0  0  0  0  0  0  0  0
  -88.1863   30.7123   -2.1666 C   0  0  0  0  0  0  0  0  0  0  0  0
  -88.3059   30.9981   -3.4992 C   0  0  0  0  0  0  0  0  0  0  0  0
  -87.7858   32.1469   -4.0729 C   0  0  0  0  0  0  0  0  0  0  0  0
  -87.1135   33.0657   -3.3093 C   0  0  0  0  0  0  0  0  0  0  0  0
  -88.8123   29.5250   -1.6279 N   0  0  0  0  0  0  0  0  0  0  0  0
  -88.7475   29.3688   -0.2067 C   0  0  0  0  0  0  0  0  0  0  0  0
  -88.4263   27.9421    0.1489 C   0  0  0  0  0  0  0  0  0  0  0  0
  -89.5109   27.0948   -0.4754 C   0  0  0  0  0  0  0  0  0  0  0  0
  -89.4001   27.1408   -1.9895 C   0  0  0  0  0  0  0  0  0  0  0  0
  -89.4597   28.5748   -2.4756 C   0  0  0  0  0  0  0  0  0  0  0  0
  -89.6963   25.8127   -0.0078 N   0  0  0  0  0  0  0  0  0  0  0  0
  -89.6265   25.4849    1.3583 C   0  0  0  0  0  0  0  0  0  0  0  0
  -90.6772   24.4528    1.7667 C   0  0  0  0  0  0  0  0  0  0  0  0
  -91.1112   23.7811    0.5462 N   0  0  0  0  0  0  0  0  0  0  0  0
  -90.0410   23.4145   -0.3631 C   0  0  0  0  0  0  0  0  0  0  0  0
  -89.4909   24.7183   -0.9170 C   0  0  0  0  0  0  0  0  0  0  0  0
  -92.4518   23.5190    0.2810 C   0  0  0  0  0  0  0  0  0  0  0  0
  -93.2623   24.5509   -0.0578 N   0  0  0  0  0  0  0  0  0  0  0  0
  -94.5676   24.3148   -0.3076 C   0  0  0  0  0  0  0  0  0  0  0  0
  -95.0811   23.0752   -0.2281 N   0  0  0  0  0  0  0  0  0  0  0  0
  -94.2985   22.0357    0.1054 C   0  0  0  0  0  0  0  0  0  0  0  0
  -94.5247   20.7142    0.2591 N   0  0  0  0  0  0  0  0  0  0  0  0
  -93.3995   20.0872    0.6032 C   0  0  0  0  0  0  0  0  0  0  0  0
  -92.4102   21.0432    0.6735 C   0  0  0  0  0  0  0  0  0  0  0  0
  -92.9691   22.2615    0.3628 C   0  0  0  0  0  0  0  0  0  0  0  0
  -95.4620   20.2412    0.1263 H   0  0  0  0  0  0  0  0  0  0  0  0
  -85.0700   33.3116   -0.5850 C   0  0  0  0  0  0  0  0  0  0  0  0
  -86.3106   33.6750   -1.1361 O   0  0  0  0  0  0  0  0  0  0  0  0
  -86.5554   34.2669   -3.7927 N   0  0  0  0  0  0  0  0  0  0  0  0
  -85.5217   34.2238   -4.0452 H   0  0  0  0  0  0  0  0  0  0  0  0
  -87.1733   35.5021   -3.9911 C   0  0  0  0  0  0  0  0  0  0  0  0
  -87.9558   36.1277   -3.1174 N   0  0  0  0  0  0  0  0  0  0  0  0
  -88.5048   37.3222   -3.3269 C   0  0  0  0  0  0  0  0  0  0  0  0
  -88.2754   37.9841   -4.5041 C   0  0  0  0  0  0  0  0  0  0  0  0
  -88.9640   39.5524   -4.8449 Cl  0  0  0  0  0  0  0  0  0  0  0  0
  -87.4564   37.3727   -5.4672 C   0  0  0  0  0  0  0  0  0  0  0  0
  -86.9562   36.1703   -5.1520 N   0  0  0  0  0  0  0  0  0  0  0  0
  -87.2137   38.0890   -6.6434 N   0  0  0  0  0  0  0  0  0  0  0  0
  -87.9783   38.0604   -7.3798 H   0  0  0  0  0  0  0  0  0  0  0  0
  -86.0829   38.8432   -6.9733 C   0  0  0  0  0  0  0  0  0  0  0  0
  -84.8591   38.7285   -6.3344 C   0  0  0  0  0  0  0  0  0  0  0  0
  -83.7912   39.5055   -6.7472 C   0  0  0  0  0  0  0  0  0  0  0  0
  -83.8665   40.4073   -7.7760 C   0  0  0  0  0  0  0  0  0  0  0  0
  -85.0831   40.5125   -8.4016 C   0  0  0  0  0  0  0  0  0  0  0  0
  -86.1874   39.7615   -8.0332 C   0  0  0  0  0  0  0  0  0  0  0  0
  -87.6990   39.9759   -8.8696 S   0  0  0  0  0  0  0  0  0  0  0  0
  -88.8744   39.9309   -7.9308 O   0  0  0  0  0  0  0  0  0  0  0  0
  -87.7273   41.2934   -9.5851 O   0  0  0  0  0  0  0  0  0  0  0  0
  -87.9665   38.6363  -10.0275 C   0  0  0  0  0  0  0  0  0  0  0  0
  -89.4065   38.2701  -10.0869 C   0  0  0  0  0  0  0  0  0  0  0  0
  -87.4812   39.1123  -11.4179 C   0  0  0  0  0  0  0  0  0  0  0  0
 29 30  1  0  0  0
 30  1  1  0  0  0
  1  2  2  0  0  0
  2  3  1  0  0  0
  3  4  2  0  0  0
  4  5  1  0  0  0
  5  6  2  0  0  0
  6 31  1  0  0  0
 31 33  1  0  0  0
 33 34  2  0  0  0
 34 35  1  0  0  0
 35 36  2  0  0  0
 36 37  1  0  0  0
 36 38  1  0  0  0
 38 40  1  0  0  0
 40 42  1  0  0  0
 42 43  2  0  0  0
 43 44  1  0  0  0
 44 45  2  0  0  0
 45 46  1  0  0  0
 46 47  2  0  0  0
 47 48  1  0  0  0
 48 49  2  0  0  0
 48 50  2  0  0  0
 48 51  1  0  0  0
 51 52  1  0  0  0
 51 53  1  0  0  0
 38 39  2  0  0  0
  3  7  1  0  0  0
  7  8  1  0  0  0
  8  9  1  0  0  0
  9 10  1  0  0  0
 10 11  1  0  0  0
 11 12  1  0  0  0
 10 13  1  0  0  0
 13 14  1  0  0  0
 14 15  1  0  0  0
 15 16  1  0  0  0
 16 17  1  0  0  0
 17 18  1  0  0  0
 16 19  1  0  0  0
 19 20  2  0  0  0
 20 21  1  0  0  0
 21 22  2  0  0  0
 22 23  1  0  0  0
 23 24  1  0  0  0
 24 25  1  0  0  0
 25 26  2  0  0  0
 26 27  1  0  0  0
  6  1  1  0  0  0
 39 33  1  0  0  0
 12  7  1  0  0  0
 18 13  1  0  0  0
 27 19  1  0  0  0
 47 42  1  0  0  0
 27 23  2  0  0  0
 31 32  1  0  0  0
 40 41  1  0  0  0
 24 28  1  0  0  0
M  END
> <minimizedAffinity>
-8.34136

> <CNNscore>
0.0538664907

> <CNNaffinity>
6.5763711929

> <CNN_VS>
0.3542460501

> <CNNaffinity_variance>
0.0779899359

$$$$
[H]c1nc(N2C([H])([H])C([H])([H])N(C3([H])C([H])([H])C([H])([H])N(c4c([H])c([H])c(N([H])c5nc([H])c(Cl)c(N([H])c6c([H])c([H])c([H])c([H])c6S(=O)(=O)C([H])(C([H])([H])[H])C([H])([H])[H])n5)c(OC([H])([H])[H])c4[H])C([H])([H])C3([H])[H])C([H])([H])C2([H])[H])c2c([H])c([H])n([H])c2n1


 53 59  0  0  0  0  0  0  0  0999 V2000
  -87.2815   31.8080   -1.9215 C   0  0  0  0  0  0  0  0  0  0  0  0
  -87.6554   30.7101   -1.1944 C   0  0  0  0  0  0  0  0  0  0  0  0
  -88.2684   29.6468   -1.8153 C   0  0  0  0  0  0  0  0  0  0  0  0
  -88.4782   29.7402   -3.1640 C   0  0  0  0  0  0  0  0  0  0  0  0
  -88.1046   30.8465   -3.9096 C   0  0  0  0  0  0  0  0  0  0  0  0
  -87.4944   31.9182   -3.3108 C   0  0  0  0  0  0  0  0  0  0  0  0
  -88.7449   28.4878   -1.0931 N   0  0  0  0  0  0  0  0  0  0  0  0
  -87.8726   27.3534   -1.0773 C   0  0  0  0  0  0  0  0  0  0  0  0
  -88.6566   26.0872   -1.2943 C   0  0  0  0  0  0  0  0  0  0  0  0
  -89.6907   26.0346   -0.1935 C   0  0  0  0  0  0  0  0  0  0  0  0
  -90.7085   27.1460   -0.3824 C   0  0  0  0  0  0  0  0  0  0  0  0
  -90.0119   28.4909   -0.4332 C   0  0  0  0  0  0  0  0  0  0  0  0
  -90.2887   24.8271    0.0916 N   0  0  0  0  0  0  0  0  0  0  0  0
  -91.2806   24.6849    1.0787 C   0  0  0  0  0  0  0  0  0  0  0  0
  -92.3888   23.7195    0.6597 C   0  0  0  0  0  0  0  0  0  0  0  0
  -91.8489   22.8915   -0.4137 N   0  0  0  0  0  0  0  0  0  0  0  0
  -90.5004   22.4038   -0.1898 C   0  0  0  0  0  0  0  0  0  0  0  0
  -89.5926   23.6204   -0.2631 C   0  0  0  0  0  0  0  0  0  0  0  0
  -92.5775   22.5996   -1.5627 C   0  0  0  0  0  0  0  0  0  0  0  0
  -93.1007   21.3574   -1.7038 N   0  0  0  0  0  0  0  0  0  0  0  0
  -93.8009   21.0553   -2.8175 C   0  0  0  0  0  0  0  0  0  0  0  0
  -93.9911   21.9624   -3.7909 N   0  0  0  0  0  0  0  0  0  0  0  0
  -93.4830   23.2004   -3.6747 C   0  0  0  0  0  0  0  0  0  0  0  0
  -93.5106   24.2939   -4.4649 N   0  0  0  0  0  0  0  0  0  0  0  0
  -92.8453   25.2976   -3.8925 C   0  0  0  0  0  0  0  0  0  0  0  0
  -92.3711   24.8313   -2.6862 C   0  0  0  0  0  0  0  0  0  0  0  0
  -92.7682   23.5212   -2.5475 C   0  0  0  0  0  0  0  0  0  0  0  0
  -93.9912   24.3484   -5.4062 H   0  0  0  0  0  0  0  0  0  0  0  0
  -85.7972   32.6348   -0.2021 C   0  0  0  0  0  0  0  0  0  0  0  0
  -86.6577   32.8843   -1.2848 O   0  0  0  0  0  0  0  0  0  0  0  0
  -87.0843   33.0918   -3.9760 N   0  0  0  0  0  0  0  0  0  0  0  0
  -86.1776   33.0130   -4.5290 H   0  0  0  0  0  0  0  0  0  0  0  0
  -87.7066   34.3401   -4.0137 C   0  0  0  0  0  0  0  0  0  0  0  0
  -88.9085   34.6232   -3.5214 N   0  0  0  0  0  0  0  0  0  0  0  0
  -89.4601   35.8345   -3.5463 C   0  0  0  0  0  0  0  0  0  0  0  0
  -88.7812   36.8847   -4.1056 C   0  0  0  0  0  0  0  0  0  0  0  0
  -89.4452   38.4985   -4.1724 Cl  0  0  0  0  0  0  0  0  0  0  0  0
  -87.5058   36.6469   -4.6432 C   0  0  0  0  0  0  0  0  0  0  0  0
  -87.0473   35.3904   -4.5645 N   0  0  0  0  0  0  0  0  0  0  0  0
  -86.8247   37.7461   -5.1755 N   0  0  0  0  0  0  0  0  0  0  0  0
  -86.2666   38.3333   -4.4889 H   0  0  0  0  0  0  0  0  0  0  0  0
  -86.7864   38.1715   -6.5073 C   0  0  0  0  0  0  0  0  0  0  0  0
  -87.6763   37.7523   -7.4827 C   0  0  0  0  0  0  0  0  0  0  0  0
  -87.5695   38.2467   -8.7707 C   0  0  0  0  0  0  0  0  0  0  0  0
  -86.6139   39.1496   -9.1563 C   0  0  0  0  0  0  0  0  0  0  0  0
  -85.7381   39.5578   -8.1823 C   0  0  0  0  0  0  0  0  0  0  0  0
  -85.7955   39.0985   -6.8766 C   0  0  0  0  0  0  0  0  0  0  0  0
  -84.6290   39.6551   -5.7104 S   0  0  0  0  0  0  0  0  0  0  0  0
  -84.1749   38.5500   -4.7952 O   0  0  0  0  0  0  0  0  0  0  0  0
  -83.4190   40.2157   -6.3961 O   0  0  0  0  0  0  0  0  0  0  0  0
  -85.3597   40.8883   -4.6370 C   0  0  0  0  0  0  0  0  0  0  0  0
  -86.6748   41.3362   -5.1670 C   0  0  0  0  0  0  0  0  0  0  0  0
  -85.5397   40.2484   -3.2394 C   0  0  0  0  0  0  0  0  0  0  0  0
 29 30  1  0  0  0
 30  1  1  0  0  0
  1  2  2  0  0  0
  2  3  1  0  0  0
  3  4  2  0  0  0
  4  5  1  0  0  0
  5  6  2  0  0  0
  6 31  1  0  0  0
 31 33  1  0  0  0
 33 34  2  0  0  0
 34 35  1  0  0  0
 35 36  2  0  0  0
 36 37  1  0  0  0
 36 38  1  0  0  0
 38 40  1  0  0  0
 40 42  1  0  0  0
 42 43  2  0  0  0
 43 44  1  0  0  0
 44 45  2  0  0  0
 45 46  1  0  0  0
 46 47  2  0  0  0
 47 48  1  0  0  0
 48 49  2  0  0  0
 48 50  2  0  0  0
 48 51  1  0  0  0
 51 52  1  0  0  0
 51 53  1  0  0  0
 38 39  2  0  0  0
  3  7  1  0  0  0
  7  8  1  0  0  0
  8  9  1  0  0  0
  9 10  1  0  0  0
 10 11  1  0  0  0
 11 12  1  0  0  0
 10 13  1  0  0  0
 13 14  1  0  0  0
 14 15  1  0  0  0
 15 16  1  0  0  0
 16 17  1  0  0  0
 17 18  1  0  0  0
 16 19  1  0  0  0
 19 20  2  0  0  0
 20 21  1  0  0  0
 21 22  2  0  0  0
 22 23  1  0  0  0
 23 24  1  0  0  0
 24 25  1  0  0  0
 25 26  2  0  0  0
 26 27  1  0  0  0
  6  1  1  0  0  0
 39 33  1  0  0  0
 12  7  1  0  0  0
 18 13  1  0  0  0
 27 19  1  0  0  0
 47 42  1  0  0  0
 27 23  2  0  0  0
 31 32  1  0  0  0
 40 41  1  0  0  0
 24 28  1  0  0  0
M  END
> <minimizedAffinity>
-8.69630

> <CNNscore>
0.0518039316

> <CNNaffinity>
6.5819067955

> <CNN_VS>
0.3409686387

> <CNNaffinity_variance>
0.3568341434

$$$$
[H]c1nc(N2C([H])([H])C([H])([H])N(C3([H])C([H])([H])C([H])([H])N(c4c([H])c([H])c(N([H])c5nc([H])c(Cl)c(N([H])c6c([H])c([H])c([H])c([H])c6S(=O)(=O)C([H])(C([H])([H])[H])C([H])([H])[H])n5)c(OC([H])([H])[H])c4[H])C([H])([H])C3([H])[H])C([H])([H])C2([H])[H])c2c([H])c([H])n([H])c2n1


 53 59  0  0  0  0  0  0  0  0999 V2000
  -87.0343   32.8171   -1.5037 C   0  0  0  0  0  0  0  0  0  0  0  0
  -86.9549   33.9710   -2.2360 C   0  0  0  0  0  0  0  0  0  0  0  0
  -88.0898   34.5177   -2.7883 C   0  0  0  0  0  0  0  0  0  0  0  0
  -89.2729   33.8658   -2.5717 C   0  0  0  0  0  0  0  0  0  0  0  0
  -89.3650   32.6973   -1.8331 C   0  0  0  0  0  0  0  0  0  0  0  0
  -88.2463   32.1339   -1.2756 C   0  0  0  0  0  0  0  0  0  0  0  0
  -88.0626   35.6972   -3.6249 N   0  0  0  0  0  0  0  0  0  0  0  0
  -87.1217   35.6826   -4.7033 C   0  0  0  0  0  0  0  0  0  0  0  0
  -86.4325   37.0159   -4.8146 C   0  0  0  0  0  0  0  0  0  0  0  0
  -87.5236   38.0421   -5.0153 C   0  0  0  0  0  0  0  0  0  0  0  0
  -88.3674   38.1569   -3.7577 C   0  0  0  0  0  0  0  0  0  0  0  0
  -88.9340   36.8027   -3.3817 C   0  0  0  0  0  0  0  0  0  0  0  0
  -87.1825   39.2752   -5.5252 N   0  0  0  0  0  0  0  0  0  0  0  0
  -87.0459   40.4194   -4.7184 C   0  0  0  0  0  0  0  0  0  0  0  0
  -85.8762   41.3032   -5.1500 C   0  0  0  0  0  0  0  0  0  0  0  0
  -85.5587   40.9463   -6.5287 N   0  0  0  0  0  0  0  0  0  0  0  0
  -86.7095   40.7808   -7.3975 C   0  0  0  0  0  0  0  0  0  0  0  0
  -87.4241   39.5277   -6.9195 C   0  0  0  0  0  0  0  0  0  0  0  0
  -84.2493   40.7761   -6.9676 C   0  0  0  0  0  0  0  0  0  0  0  0
  -83.8274   41.4801   -8.0460 N   0  0  0  0  0  0  0  0  0  0  0  0
  -82.5633   41.3182   -8.4907 C   0  0  0  0  0  0  0  0  0  0  0  0
  -81.7124   40.4724   -7.8848 N   0  0  0  0  0  0  0  0  0  0  0  0
  -82.1063   39.7634   -6.8141 C   0  0  0  0  0  0  0  0  0  0  0  0
  -81.4917   38.8632   -6.0186 N   0  0  0  0  0  0  0  0  0  0  0  0
  -82.3252   38.4363   -5.0696 C   0  0  0  0  0  0  0  0  0  0  0  0
  -83.5235   39.0879   -5.2622 C   0  0  0  0  0  0  0  0  0  0  0  0
  -83.3895   39.9178   -6.3514 C   0  0  0  0  0  0  0  0  0  0  0  0
  -80.4902   38.5403   -6.1311 H   0  0  0  0  0  0  0  0  0  0  0  0
  -84.8290   33.1215   -0.5621 C   0  0  0  0  0  0  0  0  0  0  0  0
  -85.8777   32.2676   -0.9441 O   0  0  0  0  0  0  0  0  0  0  0  0
  -88.2310   30.9459   -0.5164 N   0  0  0  0  0  0  0  0  0  0  0  0
  -87.9545   31.0581    0.5059 H   0  0  0  0  0  0  0  0  0  0  0  0
  -88.5340   29.6450   -0.9195 C   0  0  0  0  0  0  0  0  0  0  0  0
  -88.6864   29.2373   -2.1755 N   0  0  0  0  0  0  0  0  0  0  0  0
  -88.9446   27.9796   -2.5272 C   0  0  0  0  0  0  0  0  0  0  0  0
  -89.0697   27.0118   -1.5658 C   0  0  0  0  0  0  0  0  0  0  0  0
  -89.4084   25.3437   -1.9564 Cl  0  0  0  0  0  0  0  0  0  0  0  0
  -88.9195   27.3823   -0.2196 C   0  0  0  0  0  0  0  0  0  0  0  0
  -88.6613   28.6749    0.0207 N   0  0  0  0  0  0  0  0  0  0  0  0
  -89.0186   26.3653    0.7351 N   0  0  0  0  0  0  0  0  0  0  0  0
  -88.6899   25.4015    0.4339 H   0  0  0  0  0  0  0  0  0  0  0  0
  -89.4996   26.4594    2.0451 C   0  0  0  0  0  0  0  0  0  0  0  0
  -89.2698   27.5396    2.8814 C   0  0  0  0  0  0  0  0  0  0  0  0
  -89.8062   27.5494    4.1568 C   0  0  0  0  0  0  0  0  0  0  0  0
  -90.5718   26.5316    4.6620 C   0  0  0  0  0  0  0  0  0  0  0  0
  -90.7930   25.4672    3.8252 C   0  0  0  0  0  0  0  0  0  0  0  0
  -90.2828   25.4010    2.5389 C   0  0  0  0  0  0  0  0  0  0  0  0
  -90.5966   24.0007    1.5535 S   0  0  0  0  0  0  0  0  0  0  0  0
  -89.5729   23.8378    0.4624 O   0  0  0  0  0  0  0  0  0  0  0  0
  -90.5892   22.7535    2.3859 O   0  0  0  0  0  0  0  0  0  0  0  0
  -92.1660   24.1719    0.7082 C   0  0  0  0  0  0  0  0  0  0  0  0
  -92.2587   25.4922    0.0304 C   0  0  0  0  0  0  0  0  0  0  0  0
  -92.2664   23.0314   -0.3332 C   0  0  0  0  0  0  0  0  0  0  0  0
 29 30  1  0  0  0
 30  1  1  0  0  0
  1  2  2  0  0  0
  2  3  1  0  0  0
  3  4  2  0  0  0
  4  5  1  0  0  0
  5  6  2  0  0  0
  6 31  1  0  0  0
 31 33  1  0  0  0
 33 34  2  0  0  0
 34 35  1  0  0  0
 35 36  2  0  0  0
 36 37  1  0  0  0
 36 38  1  0  0  0
 38 40  1  0  0  0
 40 42  1  0  0  0
 42 43  2  0  0  0
 43 44  1  0  0  0
 44 45  2  0  0  0
 45 46  1  0  0  0
 46 47  2  0  0  0
 47 48  1  0  0  0
 48 49  2  0  0  0
 48 50  2  0  0  0
 48 51  1  0  0  0
 51 52  1  0  0  0
 51 53  1  0  0  0
 38 39  2  0  0  0
  3  7  1  0  0  0
  7  8  1  0  0  0
  8  9  1  0  0  0
  9 10  1  0  0  0
 10 11  1  0  0  0
 11 12  1  0  0  0
 10 13  1  0  0  0
 13 14  1  0  0  0
 14 15  1  0  0  0
 15 16  1  0  0  0
 16 17  1  0  0  0
 17 18  1  0  0  0
 16 19  1  0  0  0
 19 20  2  0  0  0
 20 21  1  0  0  0
 21 22  2  0  0  0
 22 23  1  0  0  0
 23 24  1  0  0  0
 24 25  1  0  0  0
 25 26  2  0  0  0
 26 27  1  0  0  0
  6  1  1  0  0  0
 39 33  1  0  0  0
 12  7  1  0  0  0
 18 13  1  0  0  0
 27 19  1  0  0  0
 47 42  1  0  0  0
 27 23  2  0  0  0
 31 32  1  0  0  0
 40 41  1  0  0  0
 24 28  1  0  0  0
M  END
> <minimizedAffinity>
-9.01462

> <CNNscore>
0.0343335606

> <CNNaffinity>
6.4876236916

> <CNN_VS>
0.2227432281

> <CNNaffinity_variance>
0.5069326162

$$$$
[H]c1nc(N2C([H])([H])C([H])([H])N(C3([H])C([H])([H])C([H])([H])N(c4c([H])c([H])c(N([H])c5nc([H])c(Cl)c(N([H])c6c([H])c([H])c([H])c([H])c6S(=O)(=O)C([H])(C([H])([H])[H])C([H])([H])[H])n5)c(OC([H])([H])[H])c4[H])C([H])([H])C3([H])[H])C([H])([H])C2([H])[H])c2c([H])c([H])n([H])c2n1


 53 59  0  0  0  0  0  0  0  0999 V2000
  -87.0721   33.2631   -2.4492 C   0  0  0  0  0  0  0  0  0  0  0  0
  -87.4718   31.9778   -2.1991 C   0  0  0  0  0  0  0  0  0  0  0  0
  -88.0826   31.2403   -3.1864 C   0  0  0  0  0  0  0  0  0  0  0  0
  -88.2637   31.8420   -4.4017 C   0  0  0  0  0  0  0  0  0  0  0  0
  -87.8639   33.1419   -4.6658 C   0  0  0  0  0  0  0  0  0  0  0  0
  -87.2554   33.8957   -3.6957 C   0  0  0  0  0  0  0  0  0  0  0  0
  -88.5854   29.9023   -2.9656 N   0  0  0  0  0  0  0  0  0  0  0  0
  -90.0087   29.7534   -2.9846 C   0  0  0  0  0  0  0  0  0  0  0  0
  -90.4550   28.8462   -1.8699 C   0  0  0  0  0  0  0  0  0  0  0  0
  -89.7352   27.5336   -2.0772 C   0  0  0  0  0  0  0  0  0  0  0  0
  -88.2455   27.7146   -1.8433 C   0  0  0  0  0  0  0  0  0  0  0  0
  -87.7015   28.8012   -2.7488 C   0  0  0  0  0  0  0  0  0  0  0  0
  -90.2250   26.4079   -1.4528 N   0  0  0  0  0  0  0  0  0  0  0  0
  -89.5657   25.1662   -1.4989 C   0  0  0  0  0  0  0  0  0  0  0  0
  -89.6367   24.4165   -0.1689 C   0  0  0  0  0  0  0  0  0  0  0  0
  -90.7486   24.9880    0.5833 N   0  0  0  0  0  0  0  0  0  0  0  0
  -91.9545   25.2200   -0.1904 C   0  0  0  0  0  0  0  0  0  0  0  0
  -91.6295   26.3509   -1.1520 C   0  0  0  0  0  0  0  0  0  0  0  0
  -90.6505   25.2878    1.9386 C   0  0  0  0  0  0  0  0  0  0  0  0
  -90.4325   24.2772    2.8148 N   0  0  0  0  0  0  0  0  0  0  0  0
  -90.3455   24.5502    4.1339 C   0  0  0  0  0  0  0  0  0  0  0  0
  -90.4700   25.8057    4.5972 N   0  0  0  0  0  0  0  0  0  0  0  0
  -90.6862   26.8247    3.7491 C   0  0  0  0  0  0  0  0  0  0  0  0
  -90.8468   28.1541    3.9159 N   0  0  0  0  0  0  0  0  0  0  0  0
  -91.0367   28.7504    2.7387 C   0  0  0  0  0  0  0  0  0  0  0  0
  -90.9965   27.7656    1.7764 C   0  0  0  0  0  0  0  0  0  0  0  0
  -90.7774   26.5614    2.4050 C   0  0  0  0  0  0  0  0  0  0  0  0
  -90.8260   28.6540    4.8485 H   0  0  0  0  0  0  0  0  0  0  0  0
  -85.5849   33.3569   -0.5460 C   0  0  0  0  0  0  0  0  0  0  0  0
  -86.4507   34.0065   -1.4422 O   0  0  0  0  0  0  0  0  0  0  0  0
  -86.8200   35.2268   -3.8593 N   0  0  0  0  0  0  0  0  0  0  0  0
  -86.1517   35.5862   -3.1120 H   0  0  0  0  0  0  0  0  0  0  0  0
  -87.1401   36.1352   -4.8688 C   0  0  0  0  0  0  0  0  0  0  0  0
  -86.3577   37.1168   -5.3062 N   0  0  0  0  0  0  0  0  0  0  0  0
  -86.6822   37.9474   -6.2946 C   0  0  0  0  0  0  0  0  0  0  0  0
  -87.8896   37.8184   -6.9288 C   0  0  0  0  0  0  0  0  0  0  0  0
  -88.3792   38.8732   -8.2316 Cl  0  0  0  0  0  0  0  0  0  0  0  0
  -88.7600   36.7990   -6.5099 C   0  0  0  0  0  0  0  0  0  0  0  0
  -88.3324   36.0209   -5.5065 N   0  0  0  0  0  0  0  0  0  0  0  0
  -89.9696   36.6719   -7.2000 N   0  0  0  0  0  0  0  0  0  0  0  0
  -90.1255   37.3442   -8.0071 H   0  0  0  0  0  0  0  0  0  0  0  0
  -91.0061   35.7643   -6.9587 C   0  0  0  0  0  0  0  0  0  0  0  0
  -90.9300   34.4079   -7.2299 C   0  0  0  0  0  0  0  0  0  0  0  0
  -92.0034   33.5856   -6.9363 C   0  0  0  0  0  0  0  0  0  0  0  0
  -93.1706   34.0374   -6.3788 C   0  0  0  0  0  0  0  0  0  0  0  0
  -93.2348   35.3821   -6.1143 C   0  0  0  0  0  0  0  0  0  0  0  0
  -92.1933   36.2543   -6.3859 C   0  0  0  0  0  0  0  0  0  0  0  0
  -92.3703   37.9505   -6.0367 S   0  0  0  0  0  0  0  0  0  0  0  0
  -91.6913   38.8123   -7.0668 O   0  0  0  0  0  0  0  0  0  0  0  0
  -93.8190   38.3349   -5.9927 O   0  0  0  0  0  0  0  0  0  0  0  0
  -91.5750   38.3538   -4.4837 C   0  0  0  0  0  0  0  0  0  0  0  0
  -90.7558   39.5877   -4.6154 C   0  0  0  0  0  0  0  0  0  0  0  0
  -92.6859   38.5635   -3.4267 C   0  0  0  0  0  0  0  0  0  0  0  0
 29 30  1  0  0  0
 30  1  1  0  0  0
  1  2  2  0  0  0
  2  3  1  0  0  0
  3  4  2  0  0  0
  4  5  1  0  0  0
  5  6  2  0  0  0
  6 31  1  0  0  0
 31 33  1  0  0  0
 33 34  2  0  0  0
 34 35  1  0  0  0
 35 36  2  0  0  0
 36 37  1  0  0  0
 36 38  1  0  0  0
 38 40  1  0  0  0
 40 42  1  0  0  0
 42 43  2  0  0  0
 43 44  1  0  0  0
 44 45  2  0  0  0
 45 46  1  0  0  0
 46 47  2  0  0  0
 47 48  1  0  0  0
 48 49  2  0  0  0
 48 50  2  0  0  0
 48 51  1  0  0  0
 51 52  1  0  0  0
 51 53  1  0  0  0
 38 39  2  0  0  0
  3  7  1  0  0  0
  7  8  1  0  0  0
  8  9  1  0  0  0
  9 10  1  0  0  0
 10 11  1  0  0  0
 11 12  1  0  0  0
 10 13  1  0  0  0
 13 14  1  0  0  0
 14 15  1  0  0  0
 15 16  1  0  0  0
 16 17  1  0  0  0
 17 18  1  0  0  0
 16 19  1  0  0  0
 19 20  2  0  0  0
 20 21  1  0  0  0
 21 22  2  0  0  0
 22 23  1  0  0  0
 23 24  1  0  0  0
 24 25  1  0  0  0
 25 26  2  0  0  0
 26 27  1  0  0  0
  6  1  1  0  0  0
 39 33  1  0  0  0
 12  7  1  0  0  0
 18 13  1  0  0  0
 27 19  1  0  0  0
 47 42  1  0  0  0
 27 23  2  0  0  0
 31 32  1  0  0  0
 40 41  1  0  0  0
 24 28  1  0  0  0
M  END
> <minimizedAffinity>
-8.54876

> <CNNscore>
0.0261973608

> <CNNaffinity>
6.8347311020

> <CNN_VS>
0.1790519208

> <CNNaffinity_variance>
0.6154064536

$$$$
[H]c1nc(N2C([H])([H])C([H])([H])N(C3([H])C([H])([H])C([H])([H])N(c4c([H])c([H])c(N([H])c5nc([H])c(Cl)c(N([H])c6c([H])c([H])c([H])c([H])c6S(=O)(=O)C([H])(C([H])([H])[H])C([H])([H])[H])n5)c(OC([H])([H])[H])c4[H])C([H])([H])C3([H])[H])C([H])([H])C2([H])[H])c2c([H])c([H])n([H])c2n1


 53 59  0  0  0  0  0  0  0  0999 V2000
  -86.9996   32.5365   -1.3364 C   0  0  0  0  0  0  0  0  0  0  0  0
  -86.9939   33.6324   -2.1568 C   0  0  0  0  0  0  0  0  0  0  0  0
  -88.1731   34.1091   -2.6802 C   0  0  0  0  0  0  0  0  0  0  0  0
  -89.3237   33.4490   -2.3451 C   0  0  0  0  0  0  0  0  0  0  0  0
  -89.3412   32.3389   -1.5165 C   0  0  0  0  0  0  0  0  0  0  0  0
  -88.1774   31.8455   -0.9858 C   0  0  0  0  0  0  0  0  0  0  0  0
  -88.2262   35.2212   -3.6034 N   0  0  0  0  0  0  0  0  0  0  0  0
  -89.3601   36.0861   -3.4826 C   0  0  0  0  0  0  0  0  0  0  0  0
  -89.8918   36.4453   -4.8439 C   0  0  0  0  0  0  0  0  0  0  0  0
  -88.7481   37.0947   -5.5883 C   0  0  0  0  0  0  0  0  0  0  0  0
  -87.6603   36.0716   -5.8656 C   0  0  0  0  0  0  0  0  0  0  0  0
  -87.1969   35.4359   -4.5704 C   0  0  0  0  0  0  0  0  0  0  0  0
  -89.0339   37.8608   -6.6966 N   0  0  0  0  0  0  0  0  0  0  0  0
  -88.0337   38.4468   -7.4934 C   0  0  0  0  0  0  0  0  0  0  0  0
  -88.3688   38.3966   -8.9837 C   0  0  0  0  0  0  0  0  0  0  0  0
  -89.8094   38.1903   -9.0896 N   0  0  0  0  0  0  0  0  0  0  0  0
  -90.6102   38.9969   -8.1869 C   0  0  0  0  0  0  0  0  0  0  0  0
  -90.3329   38.4694   -6.7889 C   0  0  0  0  0  0  0  0  0  0  0  0
  -90.3644   37.2844   -9.9882 C   0  0  0  0  0  0  0  0  0  0  0  0
  -90.5305   37.6656  -11.2781 N   0  0  0  0  0  0  0  0  0  0  0  0
  -91.0775   36.8022  -12.1597 C   0  0  0  0  0  0  0  0  0  0  0  0
  -91.4607   35.5697  -11.7847 N   0  0  0  0  0  0  0  0  0  0  0  0
  -91.3064   35.1679  -10.5123 C   0  0  0  0  0  0  0  0  0  0  0  0
  -91.5877   34.0208   -9.8597 N   0  0  0  0  0  0  0  0  0  0  0  0
  -91.2379   34.1183   -8.5768 C   0  0  0  0  0  0  0  0  0  0  0  0
  -90.7106   35.3782   -8.3971 C   0  0  0  0  0  0  0  0  0  0  0  0
  -90.7521   36.0361   -9.6048 C   0  0  0  0  0  0  0  0  0  0  0  0
  -92.0246   33.1644  -10.3020 H   0  0  0  0  0  0  0  0  0  0  0  0
  -84.8471   32.9750   -0.3276 C   0  0  0  0  0  0  0  0  0  0  0  0
  -85.7981   32.0580   -0.8068 O   0  0  0  0  0  0  0  0  0  0  0  0
  -88.0861   30.7200   -0.1415 N   0  0  0  0  0  0  0  0  0  0  0  0
  -87.8548   30.9278    0.8771 H   0  0  0  0  0  0  0  0  0  0  0  0
  -88.2629   29.3722   -0.4565 C   0  0  0  0  0  0  0  0  0  0  0  0
  -87.2942   28.4700   -0.5774 N   0  0  0  0  0  0  0  0  0  0  0  0
  -87.5008   27.1831   -0.8484 C   0  0  0  0  0  0  0  0  0  0  0  0
  -88.7770   26.7162   -1.0217 C   0  0  0  0  0  0  0  0  0  0  0  0
  -89.1198   25.0417   -1.3797 Cl  0  0  0  0  0  0  0  0  0  0  0  0
  -89.8429   27.6232   -0.9065 C   0  0  0  0  0  0  0  0  0  0  0  0
  -89.5208   28.8943   -0.6315 N   0  0  0  0  0  0  0  0  0  0  0  0
  -91.1348   27.1089   -1.0546 N   0  0  0  0  0  0  0  0  0  0  0  0
  -91.5990   26.7382   -0.1744 H   0  0  0  0  0  0  0  0  0  0  0  0
  -91.8967   27.0210   -2.2243 C   0  0  0  0  0  0  0  0  0  0  0  0
  -91.7501   27.8660   -3.3123 C   0  0  0  0  0  0  0  0  0  0  0  0
  -92.5386   27.6862   -4.4350 C   0  0  0  0  0  0  0  0  0  0  0  0
  -93.4822   26.6990   -4.5450 C   0  0  0  0  0  0  0  0  0  0  0  0
  -93.6187   25.8681   -3.4618 C   0  0  0  0  0  0  0  0  0  0  0  0
  -92.8583   25.9987   -2.3112 C   0  0  0  0  0  0  0  0  0  0  0  0
  -93.1140   24.9116   -0.9758 S   0  0  0  0  0  0  0  0  0  0  0  0
  -92.2144   25.2272    0.1887 O   0  0  0  0  0  0  0  0  0  0  0  0
  -94.5334   24.9830   -0.4976 O   0  0  0  0  0  0  0  0  0  0  0  0
  -92.7037   23.2341   -1.4498 C   0  0  0  0  0  0  0  0  0  0  0  0
  -91.9124   23.2203   -2.7087 C   0  0  0  0  0  0  0  0  0  0  0  0
  -91.8815   22.6075   -0.2980 C   0  0  0  0  0  0  0  0  0  0  0  0
 29 30  1  0  0  0
 30  1  1  0  0  0
  1  2  2  0  0  0
  2  3  1  0  0  0
  3  4  2  0  0  0
  4  5  1  0  0  0
  5  6  2  0  0  0
  6 31  1  0  0  0
 31 33  1  0  0  0
 33 34  2  0  0  0
 34 35  1  0  0  0
 35 36  2  0  0  0
 36 37  1  0  0  0
 36 38  1  0  0  0
 38 40  1  0  0  0
 40 42  1  0  0  0
 42 43  2  0  0  0
 43 44  1  0  0  0
 44 45  2  0  0  0
 45 46  1  0  0  0
 46 47  2  0  0  0
 47 48  1  0  0  0
 48 49  2  0  0  0
 48 50  2  0  0  0
 48 51  1  0  0  0
 51 52  1  0  0  0
 51 53  1  0  0  0
 38 39  2  0  0  0
  3  7  1  0  0  0
  7  8  1  0  0  0
  8  9  1  0  0  0
  9 10  1  0  0  0
 10 11  1  0  0  0
 11 12  1  0  0  0
 10 13  1  0  0  0
 13 14  1  0  0  0
 14 15  1  0  0  0
 15 16  1  0  0  0
 16 17  1  0  0  0
 17 18  1  0  0  0
 16 19  1  0  0  0
 19 20  2  0  0  0
 20 21  1  0  0  0
 21 22  2  0  0  0
 22 23  1  0  0  0
 23 24  1  0  0  0
 24 25  1  0  0  0
 25 26  2  0  0  0
 26 27  1  0  0  0
  6  1  1  0  0  0
 39 33  1  0  0  0
 12  7  1  0  0  0
 18 13  1  0  0  0
 27 19  1  0  0  0
 47 42  1  0  0  0
 27 23  2  0  0  0
 31 32  1  0  0  0
 40 41  1  0  0  0
 24 28  1  0  0  0
M  END
> <minimizedAffinity>
-8.10832

> <CNNscore>
0.0239548869

> <CNNaffinity>
6.4989852905

> <CNN_VS>
0.1556824595

> <CNNaffinity_variance>
0.7464065552

$$$$
[H]c1nc(N2C([H])([H])C([H])([H])N(C3([H])C([H])([H])C([H])([H])N(c4c([H])c([H])c(N([H])c5nc([H])c(Cl)c(N([H])c6c([H])c([H])c([H])c([H])c6S(=O)(=O)C([H])(C([H])([H])[H])C([H])([H])[H])n5)c(OC([H])([H])[H])c4[H])C([H])([H])C3([H])[H])C([H])([H])C2([H])[H])c2c([H])c([H])n([H])c2n1


 53 59  0  0  0  0  0  0  0  0999 V2000
  -87.3502   32.0462   -2.0544 C   0  0  0  0  0  0  0  0  0  0  0  0
  -87.5716   30.9896   -1.2127 C   0  0  0  0  0  0  0  0  0  0  0  0
  -87.9720   29.7752   -1.7196 C   0  0  0  0  0  0  0  0  0  0  0  0
  -88.1315   29.6798   -3.0750 C   0  0  0  0  0  0  0  0  0  0  0  0
  -87.9109   30.7426   -3.9361 C   0  0  0  0  0  0  0  0  0  0  0  0
  -87.5137   31.9622   -3.4522 C   0  0  0  0  0  0  0  0  0  0  0  0
  -88.2842   28.6409   -0.8783 N   0  0  0  0  0  0  0  0  0  0  0  0
  -87.5833   27.4280   -1.1711 C   0  0  0  0  0  0  0  0  0  0  0  0
  -88.5202   26.2522   -1.1019 C   0  0  0  0  0  0  0  0  0  0  0  0
  -89.1057   26.2578    0.2913 C   0  0  0  0  0  0  0  0  0  0  0  0
  -90.0048   27.4683    0.4729 C   0  0  0  0  0  0  0  0  0  0  0  0
  -89.2345   28.7409    0.1837 C   0  0  0  0  0  0  0  0  0  0  0  0
  -89.6884   25.1035    0.7656 N   0  0  0  0  0  0  0  0  0  0  0  0
  -89.9317   24.8819    2.1332 C   0  0  0  0  0  0  0  0  0  0  0  0
  -91.2645   24.1769    2.3835 C   0  0  0  0  0  0  0  0  0  0  0  0
  -91.6483   23.5346    1.1309 N   0  0  0  0  0  0  0  0  0  0  0  0
  -90.5729   22.8428    0.4443 C   0  0  0  0  0  0  0  0  0  0  0  0
  -89.6231   23.9213   -0.0497 C   0  0  0  0  0  0  0  0  0  0  0  0
  -92.9484   23.5892    0.6378 C   0  0  0  0  0  0  0  0  0  0  0  0
  -93.8589   22.6994    1.1026 N   0  0  0  0  0  0  0  0  0  0  0  0
  -95.1214   22.7324    0.6263 C   0  0  0  0  0  0  0  0  0  0  0  0
  -95.4955   23.6313   -0.3002 N   0  0  0  0  0  0  0  0  0  0  0  0
  -94.6120   24.5239   -0.7765 C   0  0  0  0  0  0  0  0  0  0  0  0
  -94.6945   25.5198   -1.6834 N   0  0  0  0  0  0  0  0  0  0  0  0
  -93.5174   26.1332   -1.8083 C   0  0  0  0  0  0  0  0  0  0  0  0
  -92.6429   25.5072   -0.9474 C   0  0  0  0  0  0  0  0  0  0  0  0
  -93.3242   24.5014   -0.3014 C   0  0  0  0  0  0  0  0  0  0  0  0
  -95.5689   25.7781   -2.2206 H   0  0  0  0  0  0  0  0  0  0  0  0
  -85.9807   33.3022   -0.5085 C   0  0  0  0  0  0  0  0  0  0  0  0
  -86.9422   33.2769   -1.5331 O   0  0  0  0  0  0  0  0  0  0  0  0
  -87.2719   33.1060   -4.2404 N   0  0  0  0  0  0  0  0  0  0  0  0
  -86.2487   33.3800   -4.3499 H   0  0  0  0  0  0  0  0  0  0  0  0
  -88.1889   33.9242   -4.9011 C   0  0  0  0  0  0  0  0  0  0  0  0
  -89.3529   33.5322   -5.4098 N   0  0  0  0  0  0  0  0  0  0  0  0
  -90.2198   34.3469   -6.0073 C   0  0  0  0  0  0  0  0  0  0  0  0
  -89.9344   35.6813   -6.1276 C   0  0  0  0  0  0  0  0  0  0  0  0
  -91.0254   36.8052   -6.8997 Cl  0  0  0  0  0  0  0  0  0  0  0  0
  -88.7181   36.1549   -5.6094 C   0  0  0  0  0  0  0  0  0  0  0  0
  -87.9208   35.2482   -5.0287 N   0  0  0  0  0  0  0  0  0  0  0  0
  -88.4720   37.5272   -5.7172 N   0  0  0  0  0  0  0  0  0  0  0  0
  -88.8506   38.0079   -6.5851 H   0  0  0  0  0  0  0  0  0  0  0  0
  -87.7853   38.3509   -4.8193 C   0  0  0  0  0  0  0  0  0  0  0  0
  -88.0265   38.3848   -3.4556 C   0  0  0  0  0  0  0  0  0  0  0  0
  -87.2791   39.2203   -2.6445 C   0  0  0  0  0  0  0  0  0  0  0  0
  -86.2872   40.0402   -3.1148 C   0  0  0  0  0  0  0  0  0  0  0  0
  -86.0569   39.9985   -4.4667 C   0  0  0  0  0  0  0  0  0  0  0  0
  -86.7721   39.1828   -5.3282 C   0  0  0  0  0  0  0  0  0  0  0  0
  -86.4263   39.2101   -7.0341 S   0  0  0  0  0  0  0  0  0  0  0  0
  -86.0898   37.8421   -7.5634 O   0  0  0  0  0  0  0  0  0  0  0  0
  -87.6025   39.7293   -7.8058 O   0  0  0  0  0  0  0  0  0  0  0  0
  -84.9793   40.2132   -7.3611 C   0  0  0  0  0  0  0  0  0  0  0  0
  -83.7443   39.3858   -7.3226 C   0  0  0  0  0  0  0  0  0  0  0  0
  -85.1521   40.8455   -8.7631 C   0  0  0  0  0  0  0  0  0  0  0  0
 29 30  1  0  0  0
 30  1  1  0  0  0
  1  2  2  0  0  0
  2  3  1  0  0  0
  3  4  2  0  0  0
  4  5  1  0  0  0
  5  6  2  0  0  0
  6 31  1  0  0  0
 31 33  1  0  0  0
 33 34  2  0  0  0
 34 35  1  0  0  0
 35 36  2  0  0  0
 36 37  1  0  0  0
 36 38  1  0  0  0
 38 40  1  0  0  0
 40 42  1  0  0  0
 42 43  2  0  0  0
 43 44  1  0  0  0
 44 45  2  0  0  0
 45 46  1  0  0  0
 46 47  2  0  0  0
 47 48  1  0  0  0
 48 49  2  0  0  0
 48 50  2  0  0  0
 48 51  1  0  0  0
 51 52  1  0  0  0
 51 53  1  0  0  0
 38 39  2  0  0  0
  3  7  1  0  0  0
  7  8  1  0  0  0
  8  9  1  0  0  0
  9 10  1  0  0  0
 10 11  1  0  0  0
 11 12  1  0  0  0
 10 13  1  0  0  0
 13 14  1  0  0  0
 14 15  1  0  0  0
 15 16  1  0  0  0
 16 17  1  0  0  0
 17 18  1  0  0  0
 16 19  1  0  0  0
 19 20  2  0  0  0
 20 21  1  0  0  0
 21 22  2  0  0  0
 22 23  1  0  0  0
 23 24  1  0  0  0
 24 25  1  0  0  0
 25 26  2  0  0  0
 26 27  1  0  0  0
  6  1  1  0  0  0
 39 33  1  0  0  0
 12  7  1  0  0  0
 18 13  1  0  0  0
 27 19  1  0  0  0
 47 42  1  0  0  0
 27 23  2  0  0  0
 31 32  1  0  0  0
 40 41  1  0  0  0
 24 28  1  0  0  0
M  END
> <minimizedAffinity>
-9.04690

> <CNNscore>
0.0210352521

> <CNNaffinity>
6.5482797623

> <CNN_VS>
0.1377447098

> <CNNaffinity_variance>
0.3175573647

$$$$
[H]c1nc(N2C([H])([H])C([H])([H])N(C3([H])C([H])([H])C([H])([H])N(c4c([H])c([H])c(N([H])c5nc([H])c(Cl)c(N([H])c6c([H])c([H])c([H])c([H])c6S(=O)(=O)C([H])(C([H])([H])[H])C([H])([H])[H])n5)c(OC([H])([H])[H])c4[H])C([H])([H])C3([H])[H])C([H])([H])C2([H])[H])c2c([H])c([H])n([H])c2n1


 53 59  0  0  0  0  0  0  0  0999 V2000
  -94.6514   26.7927   -5.7971 C   0  0  0  0  0  0  0  0  0  0  0  0
  -94.0400   26.4898   -4.6103 C   0  0  0  0  0  0  0  0  0  0  0  0
  -93.0342   27.2939   -4.1268 C   0  0  0  0  0  0  0  0  0  0  0  0
  -92.6865   28.3860   -4.8739 C   0  0  0  0  0  0  0  0  0  0  0  0
  -93.2978   28.7018   -6.0764 C   0  0  0  0  0  0  0  0  0  0  0  0
  -94.3007   27.9130   -6.5779 C   0  0  0  0  0  0  0  0  0  0  0  0
  -92.3062   26.9922   -2.9141 N   0  0  0  0  0  0  0  0  0  0  0  0
  -92.2902   28.0192   -1.9174 C   0  0  0  0  0  0  0  0  0  0  0  0
  -90.9141   28.1495   -1.3222 C   0  0  0  0  0  0  0  0  0  0  0  0
  -90.5661   26.7919   -0.7567 C   0  0  0  0  0  0  0  0  0  0  0  0
  -90.3968   25.7871   -1.8830 C   0  0  0  0  0  0  0  0  0  0  0  0
  -91.6510   25.7359   -2.7320 C   0  0  0  0  0  0  0  0  0  0  0  0
  -89.5529   26.7051    0.1721 N   0  0  0  0  0  0  0  0  0  0  0  0
  -88.5764   25.6932    0.1386 C   0  0  0  0  0  0  0  0  0  0  0  0
  -87.1866   26.2089    0.5106 C   0  0  0  0  0  0  0  0  0  0  0  0
  -87.3768   27.4614    1.2346 N   0  0  0  0  0  0  0  0  0  0  0  0
  -88.4378   27.4398    2.2247 C   0  0  0  0  0  0  0  0  0  0  0  0
  -89.7400   27.3411    1.4476 C   0  0  0  0  0  0  0  0  0  0  0  0
  -86.5977   28.5871    0.9857 C   0  0  0  0  0  0  0  0  0  0  0  0
  -87.1187   29.5859    0.2322 N   0  0  0  0  0  0  0  0  0  0  0  0
  -86.3717   30.6798   -0.0272 C   0  0  0  0  0  0  0  0  0  0  0  0
  -85.1200   30.7998    0.4475 N   0  0  0  0  0  0  0  0  0  0  0  0
  -84.5810   29.8240    1.1968 C   0  0  0  0  0  0  0  0  0  0  0  0
  -83.3825   29.6681    1.7970 N   0  0  0  0  0  0  0  0  0  0  0  0
  -83.3326   28.5004    2.4385 C   0  0  0  0  0  0  0  0  0  0  0  0
  -84.5473   27.8806    2.2434 C   0  0  0  0  0  0  0  0  0  0  0  0
  -85.3293   28.7055    1.4681 C   0  0  0  0  0  0  0  0  0  0  0  0
  -82.5928   30.3717    1.7636 H   0  0  0  0  0  0  0  0  0  0  0  0
  -95.3464   24.7180   -6.8244 C   0  0  0  0  0  0  0  0  0  0  0  0
  -95.6736   25.9724   -6.2820 O   0  0  0  0  0  0  0  0  0  0  0  0
  -94.9791   28.1412   -7.7927 N   0  0  0  0  0  0  0  0  0  0  0  0
  -95.0102   27.3144   -8.4633 H   0  0  0  0  0  0  0  0  0  0  0  0
  -95.6201   29.2994   -8.2337 C   0  0  0  0  0  0  0  0  0  0  0  0
  -96.8773   29.3766   -8.6589 N   0  0  0  0  0  0  0  0  0  0  0  0
  -97.4683   30.5057   -9.0436 C   0  0  0  0  0  0  0  0  0  0  0  0
  -96.7735   31.6860   -9.0160 C   0  0  0  0  0  0  0  0  0  0  0  0
  -97.4865   33.2027   -9.5070 Cl  0  0  0  0  0  0  0  0  0  0  0  0
  -95.4399   31.6675   -8.5763 C   0  0  0  0  0  0  0  0  0  0  0  0
  -94.9455   30.4765   -8.2127 N   0  0  0  0  0  0  0  0  0  0  0  0
  -94.7692   32.8935   -8.5270 N   0  0  0  0  0  0  0  0  0  0  0  0
  -95.1744   33.6274   -7.8751 H   0  0  0  0  0  0  0  0  0  0  0  0
  -93.6243   33.2765   -9.2333 C   0  0  0  0  0  0  0  0  0  0  0  0
  -93.5276   33.2764  -10.6152 C   0  0  0  0  0  0  0  0  0  0  0  0
  -92.3568   33.6929  -11.2237 C   0  0  0  0  0  0  0  0  0  0  0  0
  -91.2547   34.1180  -10.5295 C   0  0  0  0  0  0  0  0  0  0  0  0
  -91.3617   34.1142   -9.1617 C   0  0  0  0  0  0  0  0  0  0  0  0
  -92.5072   33.7086   -8.4965 C   0  0  0  0  0  0  0  0  0  0  0  0
  -92.5469   33.7163   -6.7561 S   0  0  0  0  0  0  0  0  0  0  0  0
  -93.6424   34.5984   -6.2209 O   0  0  0  0  0  0  0  0  0  0  0  0
  -92.7653   32.3314   -6.2242 O   0  0  0  0  0  0  0  0  0  0  0  0
  -91.0267   34.3990   -6.1007 C   0  0  0  0  0  0  0  0  0  0  0  0
  -91.3097   35.5474   -5.1994 C   0  0  0  0  0  0  0  0  0  0  0  0
  -90.3047   33.2751   -5.3190 C   0  0  0  0  0  0  0  0  0  0  0  0
 29 30  1  0  0  0
 30  1  1  0  0  0
  1  2  2  0  0  0
  2  3  1  0  0  0
  3  4  2  0  0  0
  4  5  1  0  0  0
  5  6  2  0  0  0
  6 31  1  0  0  0
 31 33  1  0  0  0
 33 34  2  0  0  0
 34 35  1  0  0  0
 35 36  2  0  0  0
 36 37  1  0  0  0
 36 38  1  0  0  0
 38 40  1  0  0  0
 40 42  1  0  0  0
 42 43  2  0  0  0
 43 44  1  0  0  0
 44 45  2  0  0  0
 45 46  1  0  0  0
 46 47  2  0  0  0
 47 48  1  0  0  0
 48 49  2  0  0  0
 48 50  2  0  0  0
 48 51  1  0  0  0
 51 52  1  0  0  0
 51 53  1  0  0  0
 38 39  2  0  0  0
  3  7  1  0  0  0
  7  8  1  0  0  0
  8  9  1  0  0  0
  9 10  1  0  0  0
 10 11  1  0  0  0
 11 12  1  0  0  0
 10 13  1  0  0  0
 13 14  1  0  0  0
 14 15  1  0  0  0
 15 16  1  0  0  0
 16 17  1  0  0  0
 17 18  1  0  0  0
 16 19  1  0  0  0
 19 20  2  0  0  0
 20 21  1  0  0  0
 21 22  2  0  0  0
 22 23  1  0  0  0
 23 24  1  0  0  0
 24 25  1  0  0  0
 25 26  2  0  0  0
 26 27  1  0  0  0
  6  1  1  0  0  0
 39 33  1  0  0  0
 12  7  1  0  0  0
 18 13  1  0  0  0
 27 19  1  0  0  0
 47 42  1  0  0  0
 27 23  2  0  0  0
 31 32  1  0  0  0
 40 41  1  0  0  0
 24 28  1  0  0  0
M  END
> <minimizedAffinity>
-8.66539

> <CNNscore>
0.0210064203

> <CNNaffinity>
6.2867403030

> <CNN_VS>
0.1320619136

> <CNNaffinity_variance>
0.6115657091

$$$$
[H]C1=C([H])C(C([H])([H])[H])(C([H])([H])[H])C([H])([H])C([H])(c2nc([H])c([H])c(-c3c([H])nn(C4([H])C([H])([H])C([H])([H])OC([H])([H])C4([H])[H])c3[H])c2[H])N([H])C(=O)N1C([H])([H])[H]


 30 33  0  0  0  0  0  0  0  0999 V2000
  -86.1024   32.8009   -1.8057 C   0  0  0  0  0  0  0  0  0  0  0  0
  -86.3161   31.7413   -0.9403 C   0  0  0  0  0  0  0  0  0  0  0  0
  -85.4529   31.4457    0.0951 C   0  0  0  0  0  0  0  0  0  0  0  0
  -84.3511   32.2660    0.2305 C   0  0  0  0  0  0  0  0  0  0  0  0
  -84.1212   33.3371   -0.6324 C   0  0  0  0  0  0  0  0  0  0  0  0
  -85.0137   33.5622   -1.6232 N   0  0  0  0  0  0  0  0  0  0  0  0
  -88.8090   35.9753   -6.3051 C   0  0  0  0  0  0  0  0  0  0  0  0
  -88.6760   35.1532   -5.1200 N   0  0  0  0  0  0  0  0  0  0  0  0
  -89.8776   34.4512   -4.7804 C   0  0  0  0  0  0  0  0  0  0  0  0
  -90.1935   33.3843   -4.0899 C   0  0  0  0  0  0  0  0  0  0  0  0
  -89.3935   32.3932   -3.3226 C   0  0  0  0  0  0  0  0  0  0  0  0
  -90.3322   31.5138   -2.4843 C   0  0  0  0  0  0  0  0  0  0  0  0
  -88.7320   31.4802   -4.3137 C   0  0  0  0  0  0  0  0  0  0  0  0
  -88.4345   33.1531   -2.4534 C   0  0  0  0  0  0  0  0  0  0  0  0
  -87.0169   33.1282   -2.9122 C   0  0  0  0  0  0  0  0  0  0  0  0
  -86.6978   34.4097   -3.5117 N   0  0  0  0  0  0  0  0  0  0  0  0
  -87.3889   35.1743   -4.4905 C   0  0  0  0  0  0  0  0  0  0  0  0
  -86.7097   36.1214   -4.9317 O   0  0  0  0  0  0  0  0  0  0  0  0
  -85.8327   34.8808   -3.2050 H   0  0  0  0  0  0  0  0  0  0  0  0
  -85.7066   30.3192    0.9940 C   0  0  0  0  0  0  0  0  0  0  0  0
  -85.1804   30.0929    2.2506 C   0  0  0  0  0  0  0  0  0  0  0  0
  -85.7106   28.9314    2.6736 N   0  0  0  0  0  0  0  0  0  0  0  0
  -86.5204   28.4262    1.7778 N   0  0  0  0  0  0  0  0  0  0  0  0
  -86.5392   29.2491    0.7418 C   0  0  0  0  0  0  0  0  0  0  0  0
  -87.2977   27.1915    1.8282 C   0  0  0  0  0  0  0  0  0  0  0  0
  -88.6168   27.4019    2.5257 C   0  0  0  0  0  0  0  0  0  0  0  0
  -89.7781   26.9837    1.6556 C   0  0  0  0  0  0  0  0  0  0  0  0
  -89.6250   25.7277    1.1217 O   0  0  0  0  0  0  0  0  0  0  0  0
  -88.4692   25.5279    0.4170 C   0  0  0  0  0  0  0  0  0  0  0  0
  -87.5316   26.6909    0.4136 C   0  0  0  0  0  0  0  0  0  0  0  0
  7  8  1  0  0  0
  8  9  1  0  0  0
  9 10  2  0  0  0
 10 11  1  0  0  0
 11 12  1  0  0  0
 11 13  1  0  0  0
 11 14  1  0  0  0
 14 15  1  0  0  0
 15 16  1  0  0  0
 16 17  1  0  0  0
 17 18  2  0  0  0
 15  1  1  0  0  0
  1  2  2  0  0  0
  2  3  1  0  0  0
  3  4  2  0  0  0
  4  5  1  0  0  0
  5  6  2  0  0  0
  3 20  1  0  0  0
 20 21  1  0  0  0
 21 22  2  0  0  0
 22 23  1  0  0  0
 23 24  1  0  0  0
 23 25  1  0  0  0
 25 26  1  0  0  0
 26 27  1  0  0  0
 27 28  1  0  0  0
 28 29  1  0  0  0
 29 30  1  0  0  0
 17  8  1  0  0  0
  6  1  1  0  0  0
 24 20  2  0  0  0
 30 25  1  0  0  0
 16 19  1  0  0  0
M  END
> <minimizedAffinity>
-8.81241

> <CNNscore>
0.7227306366

> <CNNaffinity>
7.1234269142

> <CNN_VS>
5.1483187675

> <CNNaffinity_variance>
0.1108833328

$$$$
[H]C1=C([H])C(C([H])([H])[H])(C([H])([H])[H])C([H])([H])C([H])(c2nc([H])c([H])c(-c3c([H])nn(C4([H])C([H])([H])C([H])([H])OC([H])([H])C4([H])[H])c3[H])c2[H])N([H])C(=O)N1C([H])([H])[H]


 30 33  0  0  0  0  0  0  0  0999 V2000
  -86.3403   27.5108    1.7546 C   0  0  0  0  0  0  0  0  0  0  0  0
  -86.3200   28.7584    1.1545 C   0  0  0  0  0  0  0  0  0  0  0  0
  -85.2020   29.5674    1.1665 C   0  0  0  0  0  0  0  0  0  0  0  0
  -84.0891   29.0690    1.8134 C   0  0  0  0  0  0  0  0  0  0  0  0
  -84.0930   27.8147    2.4227 C   0  0  0  0  0  0  0  0  0  0  0  0
  -85.2278   27.0812    2.3678 N   0  0  0  0  0  0  0  0  0  0  0  0
  -90.9249   24.0284   -0.3672 C   0  0  0  0  0  0  0  0  0  0  0  0
  -90.2470   25.0498    0.4042 N   0  0  0  0  0  0  0  0  0  0  0  0
  -91.0016   25.4986    1.5360 C   0  0  0  0  0  0  0  0  0  0  0  0
  -90.7454   26.0840    2.6791 C   0  0  0  0  0  0  0  0  0  0  0  0
  -89.4916   26.5576    3.3229 C   0  0  0  0  0  0  0  0  0  0  0  0
  -89.8359   27.4223    4.5439 C   0  0  0  0  0  0  0  0  0  0  0  0
  -88.7691   25.3517    3.8494 C   0  0  0  0  0  0  0  0  0  0  0  0
  -88.7182   27.3381    2.3006 C   0  0  0  0  0  0  0  0  0  0  0  0
  -87.5255   26.6372    1.7464 C   0  0  0  0  0  0  0  0  0  0  0  0
  -87.8385   26.1689    0.4099 N   0  0  0  0  0  0  0  0  0  0  0  0
  -88.9557   25.4393   -0.0799 C   0  0  0  0  0  0  0  0  0  0  0  0
  -88.7856   25.0167   -1.2398 O   0  0  0  0  0  0  0  0  0  0  0  0
  -87.1642   26.3787   -0.3422 H   0  0  0  0  0  0  0  0  0  0  0  0
  -85.2113   30.8813    0.5223 C   0  0  0  0  0  0  0  0  0  0  0  0
  -84.1959   31.8160    0.4720 C   0  0  0  0  0  0  0  0  0  0  0  0
  -84.6812   32.8570   -0.2278 N   0  0  0  0  0  0  0  0  0  0  0  0
  -85.9132   32.6368   -0.6116 N   0  0  0  0  0  0  0  0  0  0  0  0
  -86.2652   31.4403   -0.1695 C   0  0  0  0  0  0  0  0  0  0  0  0
  -86.8064   33.4947   -1.3844 C   0  0  0  0  0  0  0  0  0  0  0  0
  -86.3546   33.6075   -2.8176 C   0  0  0  0  0  0  0  0  0  0  0  0
  -87.4486   33.2060   -3.7781 C   0  0  0  0  0  0  0  0  0  0  0  0
  -88.6451   33.8293   -3.5211 O   0  0  0  0  0  0  0  0  0  0  0  0
  -89.1202   33.6820   -2.2463 C   0  0  0  0  0  0  0  0  0  0  0  0
  -88.2149   32.9299   -1.3262 C   0  0  0  0  0  0  0  0  0  0  0  0
  7  8  1  0  0  0
  8  9  1  0  0  0
  9 10  2  0  0  0
 10 11  1  0  0  0
 11 12  1  0  0  0
 11 13  1  0  0  0
 11 14  1  0  0  0
 14 15  1  0  0  0
 15 16  1  0  0  0
 16 17  1  0  0  0
 17 18  2  0  0  0
 15  1  1  0  0  0
  1  2  2  0  0  0
  2  3  1  0  0  0
  3  4  2  0  0  0
  4  5  1  0  0  0
  5  6  2  0  0  0
  3 20  1  0  0  0
 20 21  1  0  0  0
 21 22  2  0  0  0
 22 23  1  0  0  0
 23 24  1  0  0  0
 23 25  1  0  0  0
 25 26  1  0  0  0
 26 27  1  0  0  0
 27 28  1  0  0  0
 28 29  1  0  0  0
 29 30  1  0  0  0
 17  8  1  0  0  0
  6  1  1  0  0  0
 24 20  2  0  0  0
 30 25  1  0  0  0
 16 19  1  0  0  0
M  END
> <minimizedAffinity>
-9.35920

> <CNNscore>
0.5743049383

> <CNNaffinity>
7.2212381363

> <CNN_VS>
4.1471929550

> <CNNaffinity_variance>
0.1582805067

$$$$
[H]C1=C([H])C(C([H])([H])[H])(C([H])([H])[H])C([H])([H])C([H])(c2nc([H])c([H])c(-c3c([H])nn(C4([H])C([H])([H])C([H])([H])OC([H])([H])C4([H])[H])c3[H])c2[H])N([H])C(=O)N1C([H])([H])[H]


 30 33  0  0  0  0  0  0  0  0999 V2000
  -86.9844   27.9664    1.4907 C   0  0  0  0  0  0  0  0  0  0  0  0
  -86.9306   29.2056    0.8752 C   0  0  0  0  0  0  0  0  0  0  0  0
  -85.7726   29.9543    0.8189 C   0  0  0  0  0  0  0  0  0  0  0  0
  -84.6548   29.4039    1.4128 C   0  0  0  0  0  0  0  0  0  0  0  0
  -84.6922   28.1573    2.0368 C   0  0  0  0  0  0  0  0  0  0  0  0
  -85.8652   27.4844    2.0502 N   0  0  0  0  0  0  0  0  0  0  0  0
  -91.0709   23.8311    3.4520 C   0  0  0  0  0  0  0  0  0  0  0  0
  -90.2104   24.5554    2.5394 N   0  0  0  0  0  0  0  0  0  0  0  0
  -90.5663   24.3765    1.1634 C   0  0  0  0  0  0  0  0  0  0  0  0
  -90.3811   25.0245    0.0406 C   0  0  0  0  0  0  0  0  0  0  0  0
  -89.6837   26.2925   -0.3011 C   0  0  0  0  0  0  0  0  0  0  0  0
  -89.5511   26.4111   -1.8260 C   0  0  0  0  0  0  0  0  0  0  0  0
  -90.5652   27.4263    0.1358 C   0  0  0  0  0  0  0  0  0  0  0  0
  -88.3388   26.2694    0.3647 C   0  0  0  0  0  0  0  0  0  0  0  0
  -88.2126   27.1569    1.5551 C   0  0  0  0  0  0  0  0  0  0  0  0
  -88.2554   26.3402    2.7529 N   0  0  0  0  0  0  0  0  0  0  0  0
  -89.1622   25.3195    3.1483 C   0  0  0  0  0  0  0  0  0  0  0  0
  -89.0241   24.9864    4.3412 O   0  0  0  0  0  0  0  0  0  0  0  0
  -87.5235   26.4924    3.4639 H   0  0  0  0  0  0  0  0  0  0  0  0
  -85.7472   31.2607    0.1600 C   0  0  0  0  0  0  0  0  0  0  0  0
  -84.7553   32.2207    0.2032 C   0  0  0  0  0  0  0  0  0  0  0  0
  -85.1906   33.2415   -0.5567 N   0  0  0  0  0  0  0  0  0  0  0  0
  -86.3702   32.9856   -1.0634 N   0  0  0  0  0  0  0  0  0  0  0  0
  -86.7368   31.7851   -0.6447 C   0  0  0  0  0  0  0  0  0  0  0  0
  -87.1989   33.8119   -1.9359 C   0  0  0  0  0  0  0  0  0  0  0  0
  -86.6901   33.7937   -3.3543 C   0  0  0  0  0  0  0  0  0  0  0  0
  -87.7630   33.3582   -4.3237 C   0  0  0  0  0  0  0  0  0  0  0  0
  -88.9422   34.0439   -4.1643 O   0  0  0  0  0  0  0  0  0  0  0  0
  -89.4697   34.0161   -2.9020 C   0  0  0  0  0  0  0  0  0  0  0  0
  -88.6302   33.3063   -1.8905 C   0  0  0  0  0  0  0  0  0  0  0  0
  7  8  1  0  0  0
  8  9  1  0  0  0
  9 10  2  0  0  0
 10 11  1  0  0  0
 11 12  1  0  0  0
 11 13  1  0  0  0
 11 14  1  0  0  0
 14 15  1  0  0  0
 15 16  1  0  0  0
 16 17  1  0  0  0
 17 18  2  0  0  0
 15  1  1  0  0  0
  1  2  2  0  0  0
  2  3  1  0  0  0
  3  4  2  0  0  0
  4  5  1  0  0  0
  5  6  2  0  0  0
  3 20  1  0  0  0
 20 21  1  0  0  0
 21 22  2  0  0  0
 22 23  1  0  0  0
 23 24  1  0  0  0
 23 25  1  0  0  0
 25 26  1  0  0  0
 26 27  1  0  0  0
 27 28  1  0  0  0
 28 29  1  0  0  0
 29 30  1  0  0  0
 17  8  1  0  0  0
  6  1  1  0  0  0
 24 20  2  0  0  0
 30 25  1  0  0  0
 16 19  1  0  0  0
M  END
> <minimizedAffinity>
-8.83609

> <CNNscore>
0.2473675311

> <CNNaffinity>
6.7070055008

> <CNN_VS>
1.6590954065

> <CNNaffinity_variance>
0.4010596871

$$$$
[H]C1=C([H])C(C([H])([H])[H])(C([H])([H])[H])C([H])([H])C([H])(c2nc([H])c([H])c(-c3c([H])nn(C4([H])C([H])([H])C([H])([H])OC([H])([H])C4([H])[H])c3[H])c2[H])N([H])C(=O)N1C([H])([H])[H]


 30 33  0  0  0  0  0  0  0  0999 V2000
  -87.2274   32.7252   -1.5913 C   0  0  0  0  0  0  0  0  0  0  0  0
  -87.1071   31.4788   -1.0002 C   0  0  0  0  0  0  0  0  0  0  0  0
  -86.0704   31.1617   -0.1463 C   0  0  0  0  0  0  0  0  0  0  0  0
  -85.1456   32.1577    0.0949 C   0  0  0  0  0  0  0  0  0  0  0  0
  -85.2522   33.4180   -0.4923 C   0  0  0  0  0  0  0  0  0  0  0  0
  -86.2974   33.6517   -1.3182 N   0  0  0  0  0  0  0  0  0  0  0  0
  -92.2927   32.1544   -5.0066 C   0  0  0  0  0  0  0  0  0  0  0  0
  -90.9310   32.4990   -4.6530 N   0  0  0  0  0  0  0  0  0  0  0  0
  -90.3399   33.4545   -5.5416 C   0  0  0  0  0  0  0  0  0  0  0  0
  -89.3569   34.3183   -5.4929 C   0  0  0  0  0  0  0  0  0  0  0  0
  -88.3829   34.6950   -4.4344 C   0  0  0  0  0  0  0  0  0  0  0  0
  -87.2783   35.5718   -5.0413 C   0  0  0  0  0  0  0  0  0  0  0  0
  -89.1058   35.5550   -3.4388 C   0  0  0  0  0  0  0  0  0  0  0  0
  -87.8209   33.4286   -3.8574 C   0  0  0  0  0  0  0  0  0  0  0  0
  -88.3299   33.0767   -2.5017 C   0  0  0  0  0  0  0  0  0  0  0  0
  -89.2873   31.9948   -2.6289 N   0  0  0  0  0  0  0  0  0  0  0  0
  -90.4049   31.8413   -3.4937 C   0  0  0  0  0  0  0  0  0  0  0  0
  -91.1348   30.8832   -3.1742 O   0  0  0  0  0  0  0  0  0  0  0  0
  -89.1757   31.1797   -2.0064 H   0  0  0  0  0  0  0  0  0  0  0  0
  -85.9710   29.8354    0.4639 C   0  0  0  0  0  0  0  0  0  0  0  0
  -84.9368   29.3165    1.2178 C   0  0  0  0  0  0  0  0  0  0  0  0
  -85.3078   28.0672    1.5507 N   0  0  0  0  0  0  0  0  0  0  0  0
  -86.4870   27.7771    1.0619 N   0  0  0  0  0  0  0  0  0  0  0  0
  -86.9177   28.8350    0.3939 C   0  0  0  0  0  0  0  0  0  0  0  0
  -87.2573   26.5429    1.1813 C   0  0  0  0  0  0  0  0  0  0  0  0
  -88.1987   26.5953    2.3568 C   0  0  0  0  0  0  0  0  0  0  0  0
  -89.6254   26.3311    1.9381 C   0  0  0  0  0  0  0  0  0  0  0  0
  -89.7594   25.2021    1.1678 O   0  0  0  0  0  0  0  0  0  0  0  0
  -88.9709   25.1587    0.0503 C   0  0  0  0  0  0  0  0  0  0  0  0
  -88.0389   26.3163   -0.1009 C   0  0  0  0  0  0  0  0  0  0  0  0
  7  8  1  0  0  0
  8  9  1  0  0  0
  9 10  2  0  0  0
 10 11  1  0  0  0
 11 12  1  0  0  0
 11 13  1  0  0  0
 11 14  1  0  0  0
 14 15  1  0  0  0
 15 16  1  0  0  0
 16 17  1  0  0  0
 17 18  2  0  0  0
 15  1  1  0  0  0
  1  2  2  0  0  0
  2  3  1  0  0  0
  3  4  2  0  0  0
  4  5  1  0  0  0
  5  6  2  0  0  0
  3 20  1  0  0  0
 20 21  1  0  0  0
 21 22  2  0  0  0
 22 23  1  0  0  0
 23 24  1  0  0  0
 23 25  1  0  0  0
 25 26  1  0  0  0
 26 27  1  0  0  0
 27 28  1  0  0  0
 28 29  1  0  0  0
 29 30  1  0  0  0
 17  8  1  0  0  0
  6  1  1  0  0  0
 24 20  2  0  0  0
 30 25  1  0  0  0
 16 19  1  0  0  0
M  END
> <minimizedAffinity>
-8.62321

> <CNNscore>
0.1986964047

> <CNNaffinity>
6.5182714462

> <CNN_VS>
1.2951570749

> <CNNaffinity_variance>
0.2328676432

$$$$
[H]C1=C([H])C(C([H])([H])[H])(C([H])([H])[H])C([H])([H])C([H])(c2nc([H])c([H])c(-c3c([H])nn(C4([H])C([H])([H])C([H])([H])OC([H])([H])C4([H])[H])c3[H])c2[H])N([H])C(=O)N1C([H])([H])[H]


 30 33  0  0  0  0  0  0  0  0999 V2000
  -89.8781   27.1633   -0.5445 C   0  0  0  0  0  0  0  0  0  0  0  0
  -88.8093   27.9798   -0.2154 C   0  0  0  0  0  0  0  0  0  0  0  0
  -87.8613   27.6170    0.7197 C   0  0  0  0  0  0  0  0  0  0  0  0
  -88.0298   26.3859    1.3207 C   0  0  0  0  0  0  0  0  0  0  0  0
  -89.1005   25.5518    1.0006 C   0  0  0  0  0  0  0  0  0  0  0  0
  -89.9880   25.9785    0.0736 N   0  0  0  0  0  0  0  0  0  0  0  0
  -93.7676   26.7054   -5.2678 C   0  0  0  0  0  0  0  0  0  0  0  0
  -92.7229   27.2465   -4.4229 N   0  0  0  0  0  0  0  0  0  0  0  0
  -92.4542   28.6314   -4.6716 C   0  0  0  0  0  0  0  0  0  0  0  0
  -91.9207   29.6303   -4.0139 C   0  0  0  0  0  0  0  0  0  0  0  0
  -91.3350   29.7575   -2.6532 C   0  0  0  0  0  0  0  0  0  0  0  0
  -90.6081   31.1042   -2.5306 C   0  0  0  0  0  0  0  0  0  0  0  0
  -92.4712   29.7999   -1.6730 C   0  0  0  0  0  0  0  0  0  0  0  0
  -90.3928   28.6069   -2.4507 C   0  0  0  0  0  0  0  0  0  0  0  0
  -90.8944   27.5376   -1.5420 C   0  0  0  0  0  0  0  0  0  0  0  0
  -91.3060   26.4001   -2.3422 N   0  0  0  0  0  0  0  0  0  0  0  0
  -92.1379   26.3270   -3.4924 C   0  0  0  0  0  0  0  0  0  0  0  0
  -92.4542   25.1580   -3.7862 O   0  0  0  0  0  0  0  0  0  0  0  0
  -90.9598   25.4685   -2.0657 H   0  0  0  0  0  0  0  0  0  0  0  0
  -86.7420   28.5016    1.0453 C   0  0  0  0  0  0  0  0  0  0  0  0
  -85.6145   28.2151    1.7895 C   0  0  0  0  0  0  0  0  0  0  0  0
  -84.8834   29.3439    1.8090 N   0  0  0  0  0  0  0  0  0  0  0  0
  -85.4712   30.3008    1.1364 N   0  0  0  0  0  0  0  0  0  0  0  0
  -86.6070   29.8184    0.6585 C   0  0  0  0  0  0  0  0  0  0  0  0
  -85.0291   31.6728    0.9057 C   0  0  0  0  0  0  0  0  0  0  0  0
  -83.5254   31.7710    0.9002 C   0  0  0  0  0  0  0  0  0  0  0  0
  -83.0141   32.3937   -0.3770 C   0  0  0  0  0  0  0  0  0  0  0  0
  -83.6497   33.5691   -0.6941 O   0  0  0  0  0  0  0  0  0  0  0  0
  -85.0139   33.4948   -0.7710 C   0  0  0  0  0  0  0  0  0  0  0  0
  -85.5868   32.1606   -0.4199 C   0  0  0  0  0  0  0  0  0  0  0  0
  7  8  1  0  0  0
  8  9  1  0  0  0
  9 10  2  0  0  0
 10 11  1  0  0  0
 11 12  1  0  0  0
 11 13  1  0  0  0
 11 14  1  0  0  0
 14 15  1  0  0  0
 15 16  1  0  0  0
 16 17  1  0  0  0
 17 18  2  0  0  0
 15  1  1  0  0  0
  1  2  2  0  0  0
  2  3  1  0  0  0
  3  4  2  0  0  0
  4  5  1  0  0  0
  5  6  2  0  0  0
  3 20  1  0  0  0
 20 21  1  0  0  0
 21 22  2  0  0  0
 22 23  1  0  0  0
 23 24  1  0  0  0
 23 25  1  0  0  0
 25 26  1  0  0  0
 26 27  1  0  0  0
 27 28  1  0  0  0
 28 29  1  0  0  0
 29 30  1  0  0  0
 17  8  1  0  0  0
  6  1  1  0  0  0
 24 20  2  0  0  0
 30 25  1  0  0  0
 16 19  1  0  0  0
M  END
> <minimizedAffinity>
-8.03705

> <CNNscore>
0.1270460635

> <CNNaffinity>
6.3098683357

> <CNN_VS>
0.8016439080

> <CNNaffinity_variance>
0.1941656917

$$$$
[H]C1=C([H])C(C([H])([H])[H])(C([H])([H])[H])C([H])([H])C([H])(c2nc([H])c([H])c(-c3c([H])nn(C4([H])C([H])([H])C([H])([H])OC([H])([H])C4([H])[H])c3[H])c2[H])N([H])C(=O)N1C([H])([H])[H]


 30 33  0  0  0  0  0  0  0  0999 V2000
  -87.1206   31.5119   -0.6289 C   0  0  0  0  0  0  0  0  0  0  0  0
  -87.7453   32.3685   -1.5196 C   0  0  0  0  0  0  0  0  0  0  0  0
  -87.1320   33.5043   -2.0080 C   0  0  0  0  0  0  0  0  0  0  0  0
  -85.8493   33.7511   -1.5615 C   0  0  0  0  0  0  0  0  0  0  0  0
  -85.2061   32.8986   -0.6648 C   0  0  0  0  0  0  0  0  0  0  0  0
  -85.8738   31.8051   -0.2318 N   0  0  0  0  0  0  0  0  0  0  0  0
  -87.8187   26.1540    2.2784 C   0  0  0  0  0  0  0  0  0  0  0  0
  -87.9030   27.1410    1.2217 N   0  0  0  0  0  0  0  0  0  0  0  0
  -88.8845   26.8237    0.2277 C   0  0  0  0  0  0  0  0  0  0  0  0
  -89.5778   27.4801   -0.6686 C   0  0  0  0  0  0  0  0  0  0  0  0
  -89.6440   28.9141   -1.0560 C   0  0  0  0  0  0  0  0  0  0  0  0
  -90.4309   29.0564   -2.3666 C   0  0  0  0  0  0  0  0  0  0  0  0
  -90.4406   29.6312   -0.0050 C   0  0  0  0  0  0  0  0  0  0  0  0
  -88.2366   29.4135   -1.2062 C   0  0  0  0  0  0  0  0  0  0  0  0
  -87.7629   30.2960   -0.1028 C   0  0  0  0  0  0  0  0  0  0  0  0
  -86.8644   29.5388    0.7475 N   0  0  0  0  0  0  0  0  0  0  0  0
  -87.0082   28.2542    1.3386 C   0  0  0  0  0  0  0  0  0  0  0  0
  -86.1302   28.0129    2.1893 O   0  0  0  0  0  0  0  0  0  0  0  0
  -85.9573   29.9670    0.9888 H   0  0  0  0  0  0  0  0  0  0  0  0
  -87.8182   34.3899   -2.9494 C   0  0  0  0  0  0  0  0  0  0  0  0
  -89.1509   34.3846   -3.3116 C   0  0  0  0  0  0  0  0  0  0  0  0
  -89.2996   35.3819   -4.2017 N   0  0  0  0  0  0  0  0  0  0  0  0
  -88.1653   35.9994   -4.4153 N   0  0  0  0  0  0  0  0  0  0  0  0
  -87.2426   35.4177   -3.6663 C   0  0  0  0  0  0  0  0  0  0  0  0
  -87.8802   37.1271   -5.2974 C   0  0  0  0  0  0  0  0  0  0  0  0
  -86.7008   37.9249   -4.8041 C   0  0  0  0  0  0  0  0  0  0  0  0
  -85.6303   38.0458   -5.8624 C   0  0  0  0  0  0  0  0  0  0  0  0
  -86.1183   38.4662   -7.0753 O   0  0  0  0  0  0  0  0  0  0  0  0
  -87.1420   37.7157   -7.5865 C   0  0  0  0  0  0  0  0  0  0  0  0
  -87.6076   36.6083   -6.6984 C   0  0  0  0  0  0  0  0  0  0  0  0
  7  8  1  0  0  0
  8  9  1  0  0  0
  9 10  2  0  0  0
 10 11  1  0  0  0
 11 12  1  0  0  0
 11 13  1  0  0  0
 11 14  1  0  0  0
 14 15  1  0  0  0
 15 16  1  0  0  0
 16 17  1  0  0  0
 17 18  2  0  0  0
 15  1  1  0  0  0
  1  2  2  0  0  0
  2  3  1  0  0  0
  3  4  2  0  0  0
  4  5  1  0  0  0
  5  6  2  0  0  0
  3 20  1  0  0  0
 20 21  1  0  0  0
 21 22  2  0  0  0
 22 23  1  0  0  0
 23 24  1  0  0  0
 23 25  1  0  0  0
 25 26  1  0  0  0
 26 27  1  0  0  0
 27 28  1  0  0  0
 28 29  1  0  0  0
 29 30  1  0  0  0
 17  8  1  0  0  0
  6  1  1  0  0  0
 24 20  2  0  0  0
 30 25  1  0  0  0
 16 19  1  0  0  0
M  END
> <minimizedAffinity>
-7.78536

> <CNNscore>
0.1220946312

> <CNNaffinity>
6.3046231270

> <CNN_VS>
0.7697606087

> <CNNaffinity_variance>
0.2502799630

$$$$
[H]C1=C([H])C(C([H])([H])[H])(C([H])([H])[H])C([H])([H])C([H])(c2nc([H])c([H])c(-c3c([H])nn(C4([H])C([H])([H])C([H])([H])OC([H])([H])C4([H])[H])c3[H])c2[H])N([H])C(=O)N1C([H])([H])[H]


 30 33  0  0  0  0  0  0  0  0999 V2000
  -89.4865   26.9019    0.0574 C   0  0  0  0  0  0  0  0  0  0  0  0
  -88.3894   27.7244    0.2496 C   0  0  0  0  0  0  0  0  0  0  0  0
  -87.5658   27.6143    1.3515 C   0  0  0  0  0  0  0  0  0  0  0  0
  -87.8904   26.6331    2.2664 C   0  0  0  0  0  0  0  0  0  0  0  0
  -88.9917   25.7965    2.0878 C   0  0  0  0  0  0  0  0  0  0  0  0
  -89.7508   25.9669    0.9816 N   0  0  0  0  0  0  0  0  0  0  0  0
  -92.2897   29.2727   -4.8587 C   0  0  0  0  0  0  0  0  0  0  0  0
  -92.1283   28.5931   -3.5898 N   0  0  0  0  0  0  0  0  0  0  0  0
  -93.2586   27.7901   -3.2300 C   0  0  0  0  0  0  0  0  0  0  0  0
  -93.4877   26.7664   -2.4461 C   0  0  0  0  0  0  0  0  0  0  0  0
  -92.6227   25.9581   -1.5465 C   0  0  0  0  0  0  0  0  0  0  0  0
  -93.4989   25.0602   -0.6616 C   0  0  0  0  0  0  0  0  0  0  0  0
  -91.8086   25.0370   -2.4082 C   0  0  0  0  0  0  0  0  0  0  0  0
  -91.8050   26.9085   -0.7215 C   0  0  0  0  0  0  0  0  0  0  0  0
  -90.3711   27.0074   -1.1149 C   0  0  0  0  0  0  0  0  0  0  0  0
  -90.1681   28.2524   -1.8306 N   0  0  0  0  0  0  0  0  0  0  0  0
  -90.8879   28.8291   -2.9121 C   0  0  0  0  0  0  0  0  0  0  0  0
  -90.2982   29.8021   -3.4205 O   0  0  0  0  0  0  0  0  0  0  0  0
  -89.3803   28.8510   -1.5384 H   0  0  0  0  0  0  0  0  0  0  0  0
  -86.4127   28.4982    1.5260 C   0  0  0  0  0  0  0  0  0  0  0  0
  -85.2065   28.2190    2.1379 C   0  0  0  0  0  0  0  0  0  0  0  0
  -84.4740   29.3436    2.0493 N   0  0  0  0  0  0  0  0  0  0  0  0
  -85.1333   30.2911    1.4320 N   0  0  0  0  0  0  0  0  0  0  0  0
  -86.3192   29.8066    1.1005 C   0  0  0  0  0  0  0  0  0  0  0  0
  -84.7163   31.6558    1.1242 C   0  0  0  0  0  0  0  0  0  0  0  0
  -83.2175   31.7579    1.0057 C   0  0  0  0  0  0  0  0  0  0  0  0
  -82.8039   32.3389   -0.3254 C   0  0  0  0  0  0  0  0  0  0  0  0
  -83.4670   33.5013   -0.6340 O   0  0  0  0  0  0  0  0  0  0  0  0
  -84.8327   33.4208   -0.6086 C   0  0  0  0  0  0  0  0  0  0  0  0
  -85.3716   32.0975   -0.1726 C   0  0  0  0  0  0  0  0  0  0  0  0
  7  8  1  0  0  0
  8  9  1  0  0  0
  9 10  2  0  0  0
 10 11  1  0  0  0
 11 12  1  0  0  0
 11 13  1  0  0  0
 11 14  1  0  0  0
 14 15  1  0  0  0
 15 16  1  0  0  0
 16 17  1  0  0  0
 17 18  2  0  0  0
 15  1  1  0  0  0
  1  2  2  0  0  0
  2  3  1  0  0  0
  3  4  2  0  0  0
  4  5  1  0  0  0
  5  6  2  0  0  0
  3 20  1  0  0  0
 20 21  1  0  0  0
 21 22  2  0  0  0
 22 23  1  0  0  0
 23 24  1  0  0  0
 23 25  1  0  0  0
 25 26  1  0  0  0
 26 27  1  0  0  0
 27 28  1  0  0  0
 28 29  1  0  0  0
 29 30  1  0  0  0
 17  8  1  0  0  0
  6  1  1  0  0  0
 24 20  2  0  0  0
 30 25  1  0  0  0
 16 19  1  0  0  0
M  END
> <minimizedAffinity>
-8.38454

> <CNNscore>
0.0851618722

> <CNNaffinity>
6.2107653618

> <CNN_VS>
0.5289204121

> <CNNaffinity_variance>
0.0507833734

$$$$
[H]C1=C([H])C(C([H])([H])[H])(C([H])([H])[H])C([H])([H])C([H])(c2nc([H])c([H])c(-c3c([H])nn(C4([H])C([H])([H])C([H])([H])OC([H])([H])C4([H])[H])c3[H])c2[H])N([H])C(=O)N1C([H])([H])[H]


 30 33  0  0  0  0  0  0  0  0999 V2000
  -87.4851   29.7569   -0.3047 C   0  0  0  0  0  0  0  0  0  0  0  0
  -87.9371   30.8280   -1.0567 C   0  0  0  0  0  0  0  0  0  0  0  0
  -87.2971   32.0507   -1.0627 C   0  0  0  0  0  0  0  0  0  0  0  0
  -86.1699   32.1587   -0.2734 C   0  0  0  0  0  0  0  0  0  0  0  0
  -85.7015   31.0898    0.4899 C   0  0  0  0  0  0  0  0  0  0  0  0
  -86.3841   29.9232    0.4425 N   0  0  0  0  0  0  0  0  0  0  0  0
  -90.9240   25.0198   -2.1435 C   0  0  0  0  0  0  0  0  0  0  0  0
  -90.4076   26.0626   -1.2810 N   0  0  0  0  0  0  0  0  0  0  0  0
  -90.7236   25.8618    0.1017 C   0  0  0  0  0  0  0  0  0  0  0  0
  -90.2437   26.2563    1.2545 C   0  0  0  0  0  0  0  0  0  0  0  0
  -89.1026   27.1288    1.6385 C   0  0  0  0  0  0  0  0  0  0  0  0
  -89.1910   27.4615    3.1347 C   0  0  0  0  0  0  0  0  0  0  0  0
  -87.8426   26.3333    1.4563 C   0  0  0  0  0  0  0  0  0  0  0  0
  -89.1716   28.3698    0.7972 C   0  0  0  0  0  0  0  0  0  0  0  0
  -88.1572   28.4469   -0.2918 C   0  0  0  0  0  0  0  0  0  0  0  0
  -88.8080   28.1646   -1.5568 N   0  0  0  0  0  0  0  0  0  0  0  0
  -89.6779   27.1068   -1.9372 C   0  0  0  0  0  0  0  0  0  0  0  0
  -89.8694   27.0578   -3.1676 O   0  0  0  0  0  0  0  0  0  0  0  0
  -88.6388   28.8154   -2.3392 H   0  0  0  0  0  0  0  0  0  0  0  0
  -87.7989   33.1638   -1.8692 C   0  0  0  0  0  0  0  0  0  0  0  0
  -89.1078   33.4639   -2.1916 C   0  0  0  0  0  0  0  0  0  0  0  0
  -89.0604   34.5746   -2.9487 N   0  0  0  0  0  0  0  0  0  0  0  0
  -87.8275   34.9810   -3.1171 N   0  0  0  0  0  0  0  0  0  0  0  0
  -87.0347   34.1414   -2.4710 C   0  0  0  0  0  0  0  0  0  0  0  0
  -87.3291   36.1329   -3.8625 C   0  0  0  0  0  0  0  0  0  0  0  0
  -87.4584   35.9222   -5.3490 C   0  0  0  0  0  0  0  0  0  0  0  0
  -88.2450   37.0341   -6.0012 C   0  0  0  0  0  0  0  0  0  0  0  0
  -87.7973   38.2850   -5.6535 O   0  0  0  0  0  0  0  0  0  0  0  0
  -87.7400   38.5336   -4.3091 C   0  0  0  0  0  0  0  0  0  0  0  0
  -88.1024   37.3710   -3.4437 C   0  0  0  0  0  0  0  0  0  0  0  0
  7  8  1  0  0  0
  8  9  1  0  0  0
  9 10  2  0  0  0
 10 11  1  0  0  0
 11 12  1  0  0  0
 11 13  1  0  0  0
 11 14  1  0  0  0
 14 15  1  0  0  0
 15 16  1  0  0  0
 16 17  1  0  0  0
 17 18  2  0  0  0
 15  1  1  0  0  0
  1  2  2  0  0  0
  2  3  1  0  0  0
  3  4  2  0  0  0
  4  5  1  0  0  0
  5  6  2  0  0  0
  3 20  1  0  0  0
 20 21  1  0  0  0
 21 22  2  0  0  0
 22 23  1  0  0  0
 23 24  1  0  0  0
 23 25  1  0  0  0
 25 26  1  0  0  0
 26 27  1  0  0  0
 27 28  1  0  0  0
 28 29  1  0  0  0
 29 30  1  0  0  0
 17  8  1  0  0  0
  6  1  1  0  0  0
 24 20  2  0  0  0
 30 25  1  0  0  0
 16 19  1  0  0  0
M  END
> <minimizedAffinity>
-8.53754

> <CNNscore>
0.0701080933

> <CNNaffinity>
5.8827438354

> <CNN_VS>
0.4124279618

> <CNNaffinity_variance>
0.1402541548

$$$$
[H]C1=C([H])C(C([H])([H])[H])(C([H])([H])[H])C([H])([H])C([H])(c2nc([H])c([H])c(-c3c([H])nn(C4([H])C([H])([H])C([H])([H])OC([H])([H])C4([H])[H])c3[H])c2[H])N([H])C(=O)N1C([H])([H])[H]


 30 33  0  0  0  0  0  0  0  0999 V2000
  -90.5276   29.6794   -0.9393 C   0  0  0  0  0  0  0  0  0  0  0  0
  -89.5924   30.6877   -1.1005 C   0  0  0  0  0  0  0  0  0  0  0  0
  -89.7354   31.6861   -2.0426 C   0  0  0  0  0  0  0  0  0  0  0  0
  -90.8692   31.6327   -2.8281 C   0  0  0  0  0  0  0  0  0  0  0  0
  -91.8206   30.6242   -2.6785 C   0  0  0  0  0  0  0  0  0  0  0  0
  -91.6088   29.6812   -1.7326 N   0  0  0  0  0  0  0  0  0  0  0  0
  -90.7178   26.7786    4.4640 C   0  0  0  0  0  0  0  0  0  0  0  0
  -90.1897   27.2566    3.2028 N   0  0  0  0  0  0  0  0  0  0  0  0
  -89.0369   26.5305    2.7602 C   0  0  0  0  0  0  0  0  0  0  0  0
  -88.4295   26.3122    1.6208 C   0  0  0  0  0  0  0  0  0  0  0  0
  -88.6940   26.7500    0.2247 C   0  0  0  0  0  0  0  0  0  0  0  0
  -87.4826   26.4151   -0.6570 C   0  0  0  0  0  0  0  0  0  0  0  0
  -89.8371   25.9295   -0.2985 C   0  0  0  0  0  0  0  0  0  0  0  0
  -88.9602   28.2268    0.2504 C   0  0  0  0  0  0  0  0  0  0  0  0
  -90.3880   28.6104    0.0635 C   0  0  0  0  0  0  0  0  0  0  0  0
  -90.9379   29.0027    1.3469 N   0  0  0  0  0  0  0  0  0  0  0  0
  -90.8920   28.3574    2.6126 C   0  0  0  0  0  0  0  0  0  0  0  0
  -91.6622   28.8728    3.4457 O   0  0  0  0  0  0  0  0  0  0  0  0
  -91.4570   29.8930    1.3946 H   0  0  0  0  0  0  0  0  0  0  0  0
  -88.7298   32.7391   -2.1882 C   0  0  0  0  0  0  0  0  0  0  0  0
  -87.5839   32.9358   -1.4428 C   0  0  0  0  0  0  0  0  0  0  0  0
  -86.9892   34.0285   -1.9540 N   0  0  0  0  0  0  0  0  0  0  0  0
  -87.6776   34.5187   -2.9536 N   0  0  0  0  0  0  0  0  0  0  0  0
  -88.7449   33.7546   -3.1210 C   0  0  0  0  0  0  0  0  0  0  0  0
  -87.3957   35.6858   -3.7840 C   0  0  0  0  0  0  0  0  0  0  0  0
  -87.5963   35.3803   -5.2459 C   0  0  0  0  0  0  0  0  0  0  0  0
  -88.5720   36.3395   -5.8850 C   0  0  0  0  0  0  0  0  0  0  0  0
  -88.2790   37.6561   -5.6268 O   0  0  0  0  0  0  0  0  0  0  0  0
  -88.1645   37.9817   -4.3027 C   0  0  0  0  0  0  0  0  0  0  0  0
  -88.3023   36.8289   -3.3626 C   0  0  0  0  0  0  0  0  0  0  0  0
  7  8  1  0  0  0
  8  9  1  0  0  0
  9 10  2  0  0  0
 10 11  1  0  0  0
 11 12  1  0  0  0
 11 13  1  0  0  0
 11 14  1  0  0  0
 14 15  1  0  0  0
 15 16  1  0  0  0
 16 17  1  0  0  0
 17 18  2  0  0  0
 15  1  1  0  0  0
  1  2  2  0  0  0
  2  3  1  0  0  0
  3  4  2  0  0  0
  4  5  1  0  0  0
  5  6  2  0  0  0
  3 20  1  0  0  0
 20 21  1  0  0  0
 21 22  2  0  0  0
 22 23  1  0  0  0
 23 24  1  0  0  0
 23 25  1  0  0  0
 25 26  1  0  0  0
 26 27  1  0  0  0
 27 28  1  0  0  0
 28 29  1  0  0  0
 29 30  1  0  0  0
 17  8  1  0  0  0
  6  1  1  0  0  0
 24 20  2  0  0  0
 30 25  1  0  0  0
 16 19  1  0  0  0
M  END
> <minimizedAffinity>
-7.99010

> <CNNscore>
0.0681198984

> <CNNaffinity>
5.5053772926

> <CNN_VS>
0.3750257492

> <CNNaffinity_variance>
0.1712757796

$$$$
[H]c1nc([H])c(N([H])C(=O)c2c([H])c([H])c(C([H])([H])N3C([H])([H])C([H])([H])C([H])([H])[C@]3([H])C([H])(C([H])([H])[H])C([H])([H])[H])c([H])c2[H])c([H])c1[H]


 25 27  0  0  0  0  0  0  0  0999 V2000
  -89.3551   35.2877   -3.6707 C   0  0  0  0  0  0  0  0  0  0  0  0
  -88.0655   35.6713   -3.3882 C   0  0  0  0  0  0  0  0  0  0  0  0
  -87.2659   34.7796   -2.6797 C   0  0  0  0  0  0  0  0  0  0  0  0
  -87.6877   33.5452   -2.2483 C   0  0  0  0  0  0  0  0  0  0  0  0
  -89.0076   33.1939   -2.5570 C   0  0  0  0  0  0  0  0  0  0  0  0
  -89.8288   34.0451   -3.2542 C   0  0  0  0  0  0  0  0  0  0  0  0
  -86.8379   32.6171   -1.4955 C   0  0  0  0  0  0  0  0  0  0  0  0
  -87.2044   31.4339   -1.4756 O   0  0  0  0  0  0  0  0  0  0  0  0
  -85.6812   33.0559   -0.8406 N   0  0  0  0  0  0  0  0  0  0  0  0
  -85.4156   34.1056   -0.8881 H   0  0  0  0  0  0  0  0  0  0  0  0
  -84.7718   32.2924   -0.0802 C   0  0  0  0  0  0  0  0  0  0  0  0
  -83.4457   32.1764   -0.3941 C   0  0  0  0  0  0  0  0  0  0  0  0
  -82.5710   31.4216    0.3997 C   0  0  0  0  0  0  0  0  0  0  0  0
  -83.0466   30.7832    1.5148 C   0  0  0  0  0  0  0  0  0  0  0  0
  -84.3366   30.9060    1.8049 N   0  0  0  0  0  0  0  0  0  0  0  0
  -85.2033   31.6149    1.0762 C   0  0  0  0  0  0  0  0  0  0  0  0
  -90.2106   36.2244   -4.4123 C   0  0  0  0  0  0  0  0  0  0  0  0
  -91.9660   35.7203   -5.9597 C   0  0  0  0  0  0  0  0  0  0  0  0
  -93.4753   35.6053   -5.9540 C   0  0  0  0  0  0  0  0  0  0  0  0
  -93.8700   36.1912   -4.6046 C   0  0  0  0  0  0  0  0  0  0  0  0
  -92.5558   36.6085   -3.9421 C   0  0  0  0  0  0  0  0  0  0  0  0
  -91.5597   35.8343   -4.6009 N   0  0  0  0  0  0  0  0  0  0  0  0
  -92.2555   33.3692   -6.7690 C   0  0  0  0  0  0  0  0  0  0  0  0
  -91.3235   34.5519   -6.6759 C   0  0  0  0  0  0  0  0  0  0  0  0
  -90.8309   34.9381   -8.0464 C   0  0  0  0  0  0  0  0  0  0  0  0
 23 24  1  0  0  0
 24 25  1  0  0  0
 24 18  1  0  0  0
 18 19  1  0  0  0
 19 20  1  0  0  0
 20 21  1  0  0  0
 21 22  1  0  0  0
 22 17  1  0  0  0
 17  1  1  0  0  0
  1  2  2  0  0  0
  2  3  1  0  0  0
  3  4  2  0  0  0
  4  5  1  0  0  0
  5  6  2  0  0  0
  4  7  1  0  0  0
  7  8  2  0  0  0
  7  9  1  0  0  0
  9 11  1  0  0  0
 11 12  2  0  0  0
 12 13  1  0  0  0
 13 14  2  0  0  0
 14 15  1  0  0  0
 15 16  2  0  0  0
 22 18  1  0  0  0
  6  1  1  0  0  0
 16 11  1  0  0  0
  9 10  1  0  0  0
M  END
> <minimizedAffinity>
-6.40558

> <CNNscore>
0.3234461546

> <CNNaffinity>
5.3294520378

> <CNN_VS>
1.7237907648

> <CNNaffinity_variance>
0.1204135567

$$$$
[H]c1nc([H])c(N([H])C(=O)c2c([H])c([H])c(C([H])([H])N3C([H])([H])C([H])([H])C([H])([H])[C@]3([H])C([H])(C([H])([H])[H])C([H])([H])[H])c([H])c2[H])c([H])c1[H]


 25 27  0  0  0  0  0  0  0  0999 V2000
  -89.3664   34.6373   -4.3866 C   0  0  0  0  0  0  0  0  0  0  0  0
  -88.6580   35.2932   -3.4078 C   0  0  0  0  0  0  0  0  0  0  0  0
  -87.8534   34.5282   -2.5690 C   0  0  0  0  0  0  0  0  0  0  0  0
  -87.7264   33.1633   -2.6611 C   0  0  0  0  0  0  0  0  0  0  0  0
  -88.4648   32.5348   -3.6714 C   0  0  0  0  0  0  0  0  0  0  0  0
  -89.2703   33.2535   -4.5198 C   0  0  0  0  0  0  0  0  0  0  0  0
  -86.8809   32.3668   -1.7661 C   0  0  0  0  0  0  0  0  0  0  0  0
  -87.2175   31.1857   -1.6034 O   0  0  0  0  0  0  0  0  0  0  0  0
  -85.7602   32.9216   -1.1370 N   0  0  0  0  0  0  0  0  0  0  0  0
  -85.5200   33.9638   -1.3129 H   0  0  0  0  0  0  0  0  0  0  0  0
  -84.8596   32.2912   -0.2541 C   0  0  0  0  0  0  0  0  0  0  0  0
  -83.5019   32.3333   -0.4130 C   0  0  0  0  0  0  0  0  0  0  0  0
  -82.6404   31.7079    0.4989 C   0  0  0  0  0  0  0  0  0  0  0  0
  -83.1615   31.0377    1.5744 C   0  0  0  0  0  0  0  0  0  0  0  0
  -84.4818   31.0061    1.7134 N   0  0  0  0  0  0  0  0  0  0  0  0
  -85.3373   31.5884    0.8686 C   0  0  0  0  0  0  0  0  0  0  0  0
  -90.2248   35.4345   -5.2737 C   0  0  0  0  0  0  0  0  0  0  0  0
  -90.4111   37.7751   -5.7388 C   0  0  0  0  0  0  0  0  0  0  0  0
  -89.7818   38.7942   -6.6645 C   0  0  0  0  0  0  0  0  0  0  0  0
  -88.9908   37.9398   -7.6463 C   0  0  0  0  0  0  0  0  0  0  0  0
  -89.2354   36.4925   -7.2154 C   0  0  0  0  0  0  0  0  0  0  0  0
  -89.6377   36.5865   -5.8534 N   0  0  0  0  0  0  0  0  0  0  0  0
  -89.6147   39.4989   -4.1077 C   0  0  0  0  0  0  0  0  0  0  0  0
  -90.4970   38.2936   -4.3194 C   0  0  0  0  0  0  0  0  0  0  0  0
  -91.9162   38.6090   -3.9239 C   0  0  0  0  0  0  0  0  0  0  0  0
 23 24  1  0  0  0
 24 25  1  0  0  0
 24 18  1  0  0  0
 18 19  1  0  0  0
 19 20  1  0  0  0
 20 21  1  0  0  0
 21 22  1  0  0  0
 22 17  1  0  0  0
 17  1  1  0  0  0
  1  2  2  0  0  0
  2  3  1  0  0  0
  3  4  2  0  0  0
  4  5  1  0  0  0
  5  6  2  0  0  0
  4  7  1  0  0  0
  7  8  2  0  0  0
  7  9  1  0  0  0
  9 11  1  0  0  0
 11 12  2  0  0  0
 12 13  1  0  0  0
 13 14  2  0  0  0
 14 15  1  0  0  0
 15 16  2  0  0  0
 22 18  1  0  0  0
  6  1  1  0  0  0
 16 11  1  0  0  0
  9 10  1  0  0  0
M  END
> <minimizedAffinity>
-6.02984

> <CNNscore>
0.2947760224

> <CNNaffinity>
5.3517198563

> <CNN_VS>
1.5775586367

> <CNNaffinity_variance>
0.2071613818

$$$$
[H]c1nc([H])c(N([H])C(=O)c2c([H])c([H])c(C([H])([H])N3C([H])([H])C([H])([H])C([H])([H])[C@]3([H])C([H])(C([H])([H])[H])C([H])([H])[H])c([H])c2[H])c([H])c1[H]


 25 27  0  0  0  0  0  0  0  0999 V2000
  -86.4570   32.7331   -1.0621 C   0  0  0  0  0  0  0  0  0  0  0  0
  -87.4688   31.8032   -1.1011 C   0  0  0  0  0  0  0  0  0  0  0  0
  -88.2579   31.7536   -2.2461 C   0  0  0  0  0  0  0  0  0  0  0  0
  -88.0861   32.5751   -3.3339 C   0  0  0  0  0  0  0  0  0  0  0  0
  -87.0445   33.5076   -3.2530 C   0  0  0  0  0  0  0  0  0  0  0  0
  -86.2432   33.5887   -2.1410 C   0  0  0  0  0  0  0  0  0  0  0  0
  -88.9292   32.5185   -4.5322 C   0  0  0  0  0  0  0  0  0  0  0  0
  -88.6451   31.6415   -5.3597 O   0  0  0  0  0  0  0  0  0  0  0  0
  -89.9915   33.4109   -4.7187 N   0  0  0  0  0  0  0  0  0  0  0  0
  -90.1870   34.1618   -3.9620 H   0  0  0  0  0  0  0  0  0  0  0  0
  -90.8819   33.4844   -5.8095 C   0  0  0  0  0  0  0  0  0  0  0  0
  -90.6106   34.1862   -6.9516 C   0  0  0  0  0  0  0  0  0  0  0  0
  -91.5162   34.2185   -8.0211 C   0  0  0  0  0  0  0  0  0  0  0  0
  -92.7005   33.5358   -7.9281 C   0  0  0  0  0  0  0  0  0  0  0  0
  -92.9483   32.8600   -6.8121 N   0  0  0  0  0  0  0  0  0  0  0  0
  -92.1134   32.8030   -5.7708 C   0  0  0  0  0  0  0  0  0  0  0  0
  -85.6217   32.7991    0.1451 C   0  0  0  0  0  0  0  0  0  0  0  0
  -84.3250   31.2385    1.4151 C   0  0  0  0  0  0  0  0  0  0  0  0
  -82.9417   30.6251    1.3738 C   0  0  0  0  0  0  0  0  0  0  0  0
  -82.2161   31.4584    0.3255 C   0  0  0  0  0  0  0  0  0  0  0  0
  -83.2364   32.4952   -0.1480 C   0  0  0  0  0  0  0  0  0  0  0  0
  -84.5006   31.9335    0.1861 N   0  0  0  0  0  0  0  0  0  0  0  0
  -85.4168   29.1501    0.5711 C   0  0  0  0  0  0  0  0  0  0  0  0
  -85.3890   30.1910    1.6627 C   0  0  0  0  0  0  0  0  0  0  0  0
  -85.2240   29.5330    3.0080 C   0  0  0  0  0  0  0  0  0  0  0  0
 23 24  1  0  0  0
 24 25  1  0  0  0
 24 18  1  0  0  0
 18 19  1  0  0  0
 19 20  1  0  0  0
 20 21  1  0  0  0
 21 22  1  0  0  0
 22 17  1  0  0  0
 17  1  1  0  0  0
  1  2  2  0  0  0
  2  3  1  0  0  0
  3  4  2  0  0  0
  4  5  1  0  0  0
  5  6  2  0  0  0
  4  7  1  0  0  0
  7  8  2  0  0  0
  7  9  1  0  0  0
  9 11  1  0  0  0
 11 12  2  0  0  0
 12 13  1  0  0  0
 13 14  2  0  0  0
 14 15  1  0  0  0
 15 16  2  0  0  0
 22 18  1  0  0  0
  6  1  1  0  0  0
 16 11  1  0  0  0
  9 10  1  0  0  0
M  END
> <minimizedAffinity>
-7.97593

> <CNNscore>
0.2270264477

> <CNNaffinity>
5.5627622604

> <CNN_VS>
1.2628941536

> <CNNaffinity_variance>
0.1902439445

$$$$
[H]c1nc([H])c(N([H])C(=O)c2c([H])c([H])c(C([H])([H])N3C([H])([H])C([H])([H])C([H])([H])[C@]3([H])C([H])(C([H])([H])[H])C([H])([H])[H])c([H])c2[H])c([H])c1[H]


 25 27  0  0  0  0  0  0  0  0999 V2000
  -86.7650   32.9709   -1.1214 C   0  0  0  0  0  0  0  0  0  0  0  0
  -86.2330   33.3435   -2.3331 C   0  0  0  0  0  0  0  0  0  0  0  0
  -87.1181   33.6967   -3.3471 C   0  0  0  0  0  0  0  0  0  0  0  0
  -88.4851   33.6945   -3.2089 C   0  0  0  0  0  0  0  0  0  0  0  0
  -88.9852   33.3086   -1.9591 C   0  0  0  0  0  0  0  0  0  0  0  0
  -88.1455   32.9530   -0.9326 C   0  0  0  0  0  0  0  0  0  0  0  0
  -89.4082   34.0614   -4.2875 C   0  0  0  0  0  0  0  0  0  0  0  0
  -88.9005   34.5936   -5.2843 O   0  0  0  0  0  0  0  0  0  0  0  0
  -90.7830   33.8190   -4.1840 N   0  0  0  0  0  0  0  0  0  0  0  0
  -91.1695   33.3563   -3.2833 H   0  0  0  0  0  0  0  0  0  0  0  0
  -91.7898   34.1152   -5.1257 C   0  0  0  0  0  0  0  0  0  0  0  0
  -92.0992   33.2938   -6.1745 C   0  0  0  0  0  0  0  0  0  0  0  0
  -93.1208   33.6171   -7.0782 C   0  0  0  0  0  0  0  0  0  0  0  0
  -93.8286   34.7789   -6.9148 C   0  0  0  0  0  0  0  0  0  0  0  0
  -93.5150   35.5651   -5.8916 N   0  0  0  0  0  0  0  0  0  0  0  0
  -92.5501   35.2945   -5.0082 C   0  0  0  0  0  0  0  0  0  0  0  0
  -85.8397   32.5893   -0.0456 C   0  0  0  0  0  0  0  0  0  0  0  0
  -84.7529   30.4736    0.2233 C   0  0  0  0  0  0  0  0  0  0  0  0
  -85.1381   29.0339    0.4888 C   0  0  0  0  0  0  0  0  0  0  0  0
  -86.6505   29.0333    0.3093 C   0  0  0  0  0  0  0  0  0  0  0  0
  -87.0176   30.4725   -0.0568 C   0  0  0  0  0  0  0  0  0  0  0  0
  -85.9268   31.2533    0.4186 N   0  0  0  0  0  0  0  0  0  0  0  0
  -82.9599   29.7407    1.8090 C   0  0  0  0  0  0  0  0  0  0  0  0
  -83.5978   30.9090    1.0991 C   0  0  0  0  0  0  0  0  0  0  0  0
  -82.5616   31.6751    0.3184 C   0  0  0  0  0  0  0  0  0  0  0  0
 23 24  1  0  0  0
 24 25  1  0  0  0
 24 18  1  0  0  0
 18 19  1  0  0  0
 19 20  1  0  0  0
 20 21  1  0  0  0
 21 22  1  0  0  0
 22 17  1  0  0  0
 17  1  1  0  0  0
  1  2  2  0  0  0
  2  3  1  0  0  0
  3  4  2  0  0  0
  4  5  1  0  0  0
  5  6  2  0  0  0
  4  7  1  0  0  0
  7  8  2  0  0  0
  7  9  1  0  0  0
  9 11  1  0  0  0
 11 12  2  0  0  0
 12 13  1  0  0  0
 13 14  2  0  0  0
 14 15  1  0  0  0
 15 16  2  0  0  0
 22 18  1  0  0  0
  6  1  1  0  0  0
 16 11  1  0  0  0
  9 10  1  0  0  0
M  END
> <minimizedAffinity>
-7.49393

> <CNNscore>
0.2127791047

> <CNNaffinity>
5.3816323280

> <CNN_VS>
1.1450989246

> <CNNaffinity_variance>
0.1100366488

$$$$
[H]c1nc([H])c(N([H])C(=O)c2c([H])c([H])c(C([H])([H])N3C([H])([H])C([H])([H])C([H])([H])[C@]3([H])C([H])(C([H])([H])[H])C([H])([H])[H])c([H])c2[H])c([H])c1[H]


 25 27  0  0  0  0  0  0  0  0999 V2000
  -87.4577   29.0935   -0.2708 C   0  0  0  0  0  0  0  0  0  0  0  0
  -88.6940   28.8500    0.2790 C   0  0  0  0  0  0  0  0  0  0  0  0
  -89.5689   28.0346   -0.4323 C   0  0  0  0  0  0  0  0  0  0  0  0
  -89.2713   27.4621   -1.6452 C   0  0  0  0  0  0  0  0  0  0  0  0
  -88.0018   27.7356   -2.1694 C   0  0  0  0  0  0  0  0  0  0  0  0
  -87.1093   28.5350   -1.4990 C   0  0  0  0  0  0  0  0  0  0  0  0
  -90.2047   26.6105   -2.3891 C   0  0  0  0  0  0  0  0  0  0  0  0
  -90.2403   26.7797   -3.6159 O   0  0  0  0  0  0  0  0  0  0  0  0
  -91.0052   25.6644   -1.7382 N   0  0  0  0  0  0  0  0  0  0  0  0
  -90.9348   25.5672   -0.6610 H   0  0  0  0  0  0  0  0  0  0  0  0
  -91.9454   24.7825   -2.3096 C   0  0  0  0  0  0  0  0  0  0  0  0
  -91.6341   23.5120   -2.7087 C   0  0  0  0  0  0  0  0  0  0  0  0
  -92.6040   22.6604   -3.2557 C   0  0  0  0  0  0  0  0  0  0  0  0
  -93.8930   23.1028   -3.3974 C   0  0  0  0  0  0  0  0  0  0  0  0
  -94.1780   24.3391   -3.0053 N   0  0  0  0  0  0  0  0  0  0  0  0
  -93.2848   25.1820   -2.4795 C   0  0  0  0  0  0  0  0  0  0  0  0
  -86.5282   29.9589    0.4685 C   0  0  0  0  0  0  0  0  0  0  0  0
  -84.9438   31.7523    0.4094 C   0  0  0  0  0  0  0  0  0  0  0  0
  -84.7679   33.0784   -0.2992 C   0  0  0  0  0  0  0  0  0  0  0  0
  -86.1208   33.3091   -0.9596 C   0  0  0  0  0  0  0  0  0  0  0  0
  -86.9752   32.1014   -0.5701 C   0  0  0  0  0  0  0  0  0  0  0  0
  -86.0334   31.0920   -0.2239 N   0  0  0  0  0  0  0  0  0  0  0  0
  -82.4714   31.7826    0.0196 C   0  0  0  0  0  0  0  0  0  0  0  0
  -83.6664   30.9408    0.3926 C   0  0  0  0  0  0  0  0  0  0  0  0
  -83.4268   30.2473    1.7086 C   0  0  0  0  0  0  0  0  0  0  0  0
 23 24  1  0  0  0
 24 25  1  0  0  0
 24 18  1  0  0  0
 18 19  1  0  0  0
 19 20  1  0  0  0
 20 21  1  0  0  0
 21 22  1  0  0  0
 22 17  1  0  0  0
 17  1  1  0  0  0
  1  2  2  0  0  0
  2  3  1  0  0  0
  3  4  2  0  0  0
  4  5  1  0  0  0
  5  6  2  0  0  0
  4  7  1  0  0  0
  7  8  2  0  0  0
  7  9  1  0  0  0
  9 11  1  0  0  0
 11 12  2  0  0  0
 12 13  1  0  0  0
 13 14  2  0  0  0
 14 15  1  0  0  0
 15 16  2  0  0  0
 22 18  1  0  0  0
  6  1  1  0  0  0
 16 11  1  0  0  0
  9 10  1  0  0  0
M  END
> <minimizedAffinity>
-7.41838

> <CNNscore>
0.1534688771

> <CNNaffinity>
5.1359663010

> <CNN_VS>
0.7882109880

> <CNNaffinity_variance>
0.3286140263

$$$$
[H]c1nc([H])c(N([H])C(=O)c2c([H])c([H])c(C([H])([H])N3C([H])([H])C([H])([H])C([H])([H])[C@]3([H])C([H])(C([H])([H])[H])C([H])([H])[H])c([H])c2[H])c([H])c1[H]


 25 27  0  0  0  0  0  0  0  0999 V2000
  -87.0978   30.3301   -0.2114 C   0  0  0  0  0  0  0  0  0  0  0  0
  -88.4600   30.5032   -0.2782 C   0  0  0  0  0  0  0  0  0  0  0  0
  -89.2090   29.5073   -0.8976 C   0  0  0  0  0  0  0  0  0  0  0  0
  -88.6697   28.3677   -1.4435 C   0  0  0  0  0  0  0  0  0  0  0  0
  -87.2789   28.2309   -1.3540 C   0  0  0  0  0  0  0  0  0  0  0  0
  -86.5041   29.1906   -0.7507 C   0  0  0  0  0  0  0  0  0  0  0  0
  -89.4686   27.3286   -2.1007 C   0  0  0  0  0  0  0  0  0  0  0  0
  -89.6326   27.4556   -3.3220 O   0  0  0  0  0  0  0  0  0  0  0  0
  -90.0103   26.2593   -1.3776 N   0  0  0  0  0  0  0  0  0  0  0  0
  -89.8384   26.2060   -0.3088 H   0  0  0  0  0  0  0  0  0  0  0  0
  -90.7964   25.1937   -1.8620 C   0  0  0  0  0  0  0  0  0  0  0  0
  -91.9786   25.3763   -2.5249 C   0  0  0  0  0  0  0  0  0  0  0  0
  -92.7208   24.2892   -3.0068 C   0  0  0  0  0  0  0  0  0  0  0  0
  -92.2596   23.0136   -2.8131 C   0  0  0  0  0  0  0  0  0  0  0  0
  -91.1104   22.8542   -2.1671 N   0  0  0  0  0  0  0  0  0  0  0  0
  -90.3726   23.8617   -1.6924 C   0  0  0  0  0  0  0  0  0  0  0  0
  -86.2962   31.3788    0.4344 C   0  0  0  0  0  0  0  0  0  0  0  0
  -84.1249   31.0638    1.3915 C   0  0  0  0  0  0  0  0  0  0  0  0
  -82.6822   31.3473    1.0315 C   0  0  0  0  0  0  0  0  0  0  0  0
  -82.7931   32.2597   -0.1830 C   0  0  0  0  0  0  0  0  0  0  0  0
  -84.2935   32.4396   -0.4213 C   0  0  0  0  0  0  0  0  0  0  0  0
  -84.8960   31.3235    0.2243 N   0  0  0  0  0  0  0  0  0  0  0  0
  -82.9725   28.9750    2.1498 C   0  0  0  0  0  0  0  0  0  0  0  0
  -84.2988   29.6552    1.9173 C   0  0  0  0  0  0  0  0  0  0  0  0
  -85.1286   29.6257    3.1745 C   0  0  0  0  0  0  0  0  0  0  0  0
 23 24  1  0  0  0
 24 25  1  0  0  0
 24 18  1  0  0  0
 18 19  1  0  0  0
 19 20  1  0  0  0
 20 21  1  0  0  0
 21 22  1  0  0  0
 22 17  1  0  0  0
 17  1  1  0  0  0
  1  2  2  0  0  0
  2  3  1  0  0  0
  3  4  2  0  0  0
  4  5  1  0  0  0
  5  6  2  0  0  0
  4  7  1  0  0  0
  7  8  2  0  0  0
  7  9  1  0  0  0
  9 11  1  0  0  0
 11 12  2  0  0  0
 12 13  1  0  0  0
 13 14  2  0  0  0
 14 15  1  0  0  0
 15 16  2  0  0  0
 22 18  1  0  0  0
  6  1  1  0  0  0
 16 11  1  0  0  0
  9 10  1  0  0  0
M  END
> <minimizedAffinity>
-8.40375

> <CNNscore>
0.1455394477

> <CNNaffinity>
5.2749953270

> <CNN_VS>
0.7677199244

> <CNNaffinity_variance>
0.4507831633

$$$$
[H]c1nc([H])c(N([H])C(=O)c2c([H])c([H])c(C([H])([H])N3C([H])([H])C([H])([H])C([H])([H])[C@]3([H])C([H])(C([H])([H])[H])C([H])([H])[H])c([H])c2[H])c([H])c1[H]


 25 27  0  0  0  0  0  0  0  0999 V2000
  -88.0580   34.7366   -4.7806 C   0  0  0  0  0  0  0  0  0  0  0  0
  -87.6268   35.3872   -3.6489 C   0  0  0  0  0  0  0  0  0  0  0  0
  -87.4302   34.6262   -2.5005 C   0  0  0  0  0  0  0  0  0  0  0  0
  -87.6409   33.2703   -2.4320 C   0  0  0  0  0  0  0  0  0  0  0  0
  -88.0797   32.6470   -3.6067 C   0  0  0  0  0  0  0  0  0  0  0  0
  -88.2855   33.3619   -4.7606 C   0  0  0  0  0  0  0  0  0  0  0  0
  -87.4376   32.4802   -1.2136 C   0  0  0  0  0  0  0  0  0  0  0  0
  -88.4144   32.3786   -0.4584 O   0  0  0  0  0  0  0  0  0  0  0  0
  -86.2047   31.8804   -0.9312 N   0  0  0  0  0  0  0  0  0  0  0  0
  -85.3842   32.0109   -1.6273 H   0  0  0  0  0  0  0  0  0  0  0  0
  -85.8555   31.1008    0.1906 C   0  0  0  0  0  0  0  0  0  0  0  0
  -85.1130   31.5805    1.2341 C   0  0  0  0  0  0  0  0  0  0  0  0
  -84.8032   30.7767    2.3399 C   0  0  0  0  0  0  0  0  0  0  0  0
  -85.2493   29.4820    2.3838 C   0  0  0  0  0  0  0  0  0  0  0  0
  -85.9685   29.0320    1.3621 N   0  0  0  0  0  0  0  0  0  0  0  0
  -86.2861   29.7639    0.2906 C   0  0  0  0  0  0  0  0  0  0  0  0
  -88.2755   35.5315   -5.9972 C   0  0  0  0  0  0  0  0  0  0  0  0
  -90.2689   35.8984   -7.2707 C   0  0  0  0  0  0  0  0  0  0  0  0
  -91.3847   36.9183   -7.3495 C   0  0  0  0  0  0  0  0  0  0  0  0
  -90.8774   38.0654   -6.4854 C   0  0  0  0  0  0  0  0  0  0  0  0
  -89.5021   37.6204   -5.9845 C   0  0  0  0  0  0  0  0  0  0  0  0
  -89.5196   36.2020   -6.0999 N   0  0  0  0  0  0  0  0  0  0  0  0
  -91.8360   34.2677   -6.1978 C   0  0  0  0  0  0  0  0  0  0  0  0
  -90.8084   34.4843   -7.2808 C   0  0  0  0  0  0  0  0  0  0  0  0
  -91.3794   34.1129   -8.6247 C   0  0  0  0  0  0  0  0  0  0  0  0
 23 24  1  0  0  0
 24 25  1  0  0  0
 24 18  1  0  0  0
 18 19  1  0  0  0
 19 20  1  0  0  0
 20 21  1  0  0  0
 21 22  1  0  0  0
 22 17  1  0  0  0
 17  1  1  0  0  0
  1  2  2  0  0  0
  2  3  1  0  0  0
  3  4  2  0  0  0
  4  5  1  0  0  0
  5  6  2  0  0  0
  4  7  1  0  0  0
  7  8  2  0  0  0
  7  9  1  0  0  0
  9 11  1  0  0  0
 11 12  2  0  0  0
 12 13  1  0  0  0
 13 14  2  0  0  0
 14 15  1  0  0  0
 15 16  2  0  0  0
 22 18  1  0  0  0
  6  1  1  0  0  0
 16 11  1  0  0  0
  9 10  1  0  0  0
M  END
> <minimizedAffinity>
-6.17782

> <CNNscore>
0.1326730698

> <CNNaffinity>
4.9321889877

> <CNN_VS>
0.6543686390

> <CNNaffinity_variance>
0.1451052576

$$$$
[H]c1nc([H])c(N([H])C(=O)c2c([H])c([H])c(C([H])([H])N3C([H])([H])C([H])([H])C([H])([H])[C@]3([H])C([H])(C([H])([H])[H])C([H])([H])[H])c([H])c2[H])c([H])c1[H]


 25 27  0  0  0  0  0  0  0  0999 V2000
  -87.6726   32.1401   -0.9828 C   0  0  0  0  0  0  0  0  0  0  0  0
  -86.4884   32.7740   -1.2756 C   0  0  0  0  0  0  0  0  0  0  0  0
  -86.5392   33.8866   -2.1098 C   0  0  0  0  0  0  0  0  0  0  0  0
  -87.6973   34.3858   -2.6550 C   0  0  0  0  0  0  0  0  0  0  0  0
  -88.8808   33.7107   -2.3313 C   0  0  0  0  0  0  0  0  0  0  0  0
  -88.8734   32.6091   -1.5118 C   0  0  0  0  0  0  0  0  0  0  0  0
  -87.7374   35.5548   -3.5391 C   0  0  0  0  0  0  0  0  0  0  0  0
  -88.7135   36.3064   -3.4080 O   0  0  0  0  0  0  0  0  0  0  0  0
  -86.7243   35.7963   -4.4745 N   0  0  0  0  0  0  0  0  0  0  0  0
  -85.8983   35.0984   -4.5475 H   0  0  0  0  0  0  0  0  0  0  0  0
  -86.6241   36.8647   -5.3891 C   0  0  0  0  0  0  0  0  0  0  0  0
  -86.0759   38.0760   -5.0685 C   0  0  0  0  0  0  0  0  0  0  0  0
  -85.9787   39.1064   -6.0139 C   0  0  0  0  0  0  0  0  0  0  0  0
  -86.4407   38.9042   -7.2878 C   0  0  0  0  0  0  0  0  0  0  0  0
  -86.9704   37.7225   -7.5821 N   0  0  0  0  0  0  0  0  0  0  0  0
  -87.0818   36.7148   -6.7122 C   0  0  0  0  0  0  0  0  0  0  0  0
  -87.6299   30.9599   -0.1084 C   0  0  0  0  0  0  0  0  0  0  0  0
  -88.8802   28.9318    0.1231 C   0  0  0  0  0  0  0  0  0  0  0  0
  -88.9354   27.5620   -0.5186 C   0  0  0  0  0  0  0  0  0  0  0  0
  -87.6785   27.5226   -1.3779 C   0  0  0  0  0  0  0  0  0  0  0  0
  -86.9907   28.8708   -1.1552 C   0  0  0  0  0  0  0  0  0  0  0  0
  -88.0257   29.7291   -0.6884 N   0  0  0  0  0  0  0  0  0  0  0  0
  -91.0423   29.5000   -1.0032 C   0  0  0  0  0  0  0  0  0  0  0  0
  -90.2637   29.5229    0.2887 C   0  0  0  0  0  0  0  0  0  0  0  0
  -91.0404   28.8319    1.3793 C   0  0  0  0  0  0  0  0  0  0  0  0
 23 24  1  0  0  0
 24 25  1  0  0  0
 24 18  1  0  0  0
 18 19  1  0  0  0
 19 20  1  0  0  0
 20 21  1  0  0  0
 21 22  1  0  0  0
 22 17  1  0  0  0
 17  1  1  0  0  0
  1  2  2  0  0  0
  2  3  1  0  0  0
  3  4  2  0  0  0
  4  5  1  0  0  0
  5  6  2  0  0  0
  4  7  1  0  0  0
  7  8  2  0  0  0
  7  9  1  0  0  0
  9 11  1  0  0  0
 11 12  2  0  0  0
 12 13  1  0  0  0
 13 14  2  0  0  0
 14 15  1  0  0  0
 15 16  2  0  0  0
 22 18  1  0  0  0
  6  1  1  0  0  0
 16 11  1  0  0  0
  9 10  1  0  0  0
M  END
> <minimizedAffinity>
-6.94763

> <CNNscore>
0.1325046867

> <CNNaffinity>
4.8360729218

> <CNN_VS>
0.6408023238

> <CNNaffinity_variance>
0.4051061571

$$$$
[H]c1nc([H])c(N([H])C(=O)c2c([H])c([H])c(C([H])([H])N3C([H])([H])C([H])([H])C([H])([H])[C@]3([H])C([H])(C([H])([H])[H])C([H])([H])[H])c([H])c2[H])c([H])c1[H]


 25 27  0  0  0  0  0  0  0  0999 V2000
  -87.2684   31.8657   -0.7504 C   0  0  0  0  0  0  0  0  0  0  0  0
  -88.5394   32.3562   -0.9347 C   0  0  0  0  0  0  0  0  0  0  0  0
  -88.7021   33.4128   -1.8255 C   0  0  0  0  0  0  0  0  0  0  0  0
  -87.6725   33.9914   -2.5275 C   0  0  0  0  0  0  0  0  0  0  0  0
  -86.3944   33.4617   -2.3104 C   0  0  0  0  0  0  0  0  0  0  0  0
  -86.1916   32.4195   -1.4400 C   0  0  0  0  0  0  0  0  0  0  0  0
  -87.8553   35.1098   -3.4579 C   0  0  0  0  0  0  0  0  0  0  0  0
  -88.9630   35.6640   -3.4358 O   0  0  0  0  0  0  0  0  0  0  0  0
  -86.8286   35.5178   -4.3177 N   0  0  0  0  0  0  0  0  0  0  0  0
  -85.8828   34.9889   -4.2962 H   0  0  0  0  0  0  0  0  0  0  0  0
  -86.8526   36.5635   -5.2632 C   0  0  0  0  0  0  0  0  0  0  0  0
  -87.3933   36.4313   -6.5124 C   0  0  0  0  0  0  0  0  0  0  0  0
  -87.4132   37.5025   -7.4163 C   0  0  0  0  0  0  0  0  0  0  0  0
  -86.8813   38.7105   -7.0487 C   0  0  0  0  0  0  0  0  0  0  0  0
  -86.3600   38.8215   -5.8324 N   0  0  0  0  0  0  0  0  0  0  0  0
  -86.3211   37.8270   -4.9412 C   0  0  0  0  0  0  0  0  0  0  0  0
  -87.0840   30.7545    0.1933 C   0  0  0  0  0  0  0  0  0  0  0  0
  -85.6821   29.6957    1.8193 C   0  0  0  0  0  0  0  0  0  0  0  0
  -84.2875   29.8609    2.3841 C   0  0  0  0  0  0  0  0  0  0  0  0
  -83.8447   31.2144    1.8440 C   0  0  0  0  0  0  0  0  0  0  0  0
  -85.0250   31.7288    1.0178 C   0  0  0  0  0  0  0  0  0  0  0  0
  -85.7725   30.5618    0.6940 N   0  0  0  0  0  0  0  0  0  0  0  0
  -84.9047   27.3232    2.0003 C   0  0  0  0  0  0  0  0  0  0  0  0
  -85.9760   28.2499    1.4814 C   0  0  0  0  0  0  0  0  0  0  0  0
  -87.3285   27.8207    1.9881 C   0  0  0  0  0  0  0  0  0  0  0  0
 23 24  1  0  0  0
 24 25  1  0  0  0
 24 18  1  0  0  0
 18 19  1  0  0  0
 19 20  1  0  0  0
 20 21  1  0  0  0
 21 22  1  0  0  0
 22 17  1  0  0  0
 17  1  1  0  0  0
  1  2  2  0  0  0
  2  3  1  0  0  0
  3  4  2  0  0  0
  4  5  1  0  0  0
  5  6  2  0  0  0
  4  7  1  0  0  0
  7  8  2  0  0  0
  7  9  1  0  0  0
  9 11  1  0  0  0
 11 12  2  0  0  0
 12 13  1  0  0  0
 13 14  2  0  0  0
 14 15  1  0  0  0
 15 16  2  0  0  0
 22 18  1  0  0  0
  6  1  1  0  0  0
 16 11  1  0  0  0
  9 10  1  0  0  0
M  END
> <minimizedAffinity>
-7.81366

> <CNNscore>
0.1282798797

> <CNNaffinity>
5.2979154587

> <CNN_VS>
0.6796159744

> <CNNaffinity_variance>
0.2403461039

$$$$
[H]c1nc(N([H])[H])c(-c2nn(-c3c(Cl)c(OC([H])([H])[H])c([H])c(OC([H])([H])[H])c3Cl)c(=O)c([H])c2[H])nc1-c1c([H])nn(C2([H])C([H])([H])C([H])([H])N([H])C([H])([H])C2([H])[H])c1[H]


 40 44  0  0  0  0  0  0  0  0999 V2000
  -85.2681   31.1284    0.1696 C   0  0  0  0  0  0  0  0  0  0  0  0
  -86.2534   31.7279   -0.5580 N   0  0  0  0  0  0  0  0  0  0  0  0
  -86.0829   32.9179   -1.1265 C   0  0  0  0  0  0  0  0  0  0  0  0
  -84.8817   33.5525   -0.9718 C   0  0  0  0  0  0  0  0  0  0  0  0
  -83.8623   33.0107   -0.2608 N   0  0  0  0  0  0  0  0  0  0  0  0
  -84.0822   31.8028    0.2967 C   0  0  0  0  0  0  0  0  0  0  0  0
  -83.0401   31.2227    1.0391 N   0  0  0  0  0  0  0  0  0  0  0  0
  -82.9538   31.4900    2.0445 H   0  0  0  0  0  0  0  0  0  0  0  0
  -82.3973   30.5594    0.5829 H   0  0  0  0  0  0  0  0  0  0  0  0
  -86.8290   28.0182    1.2847 N   0  0  0  0  0  0  0  0  0  0  0  0
  -86.6430   29.2127    0.7188 N   0  0  0  0  0  0  0  0  0  0  0  0
  -85.4525   29.8325    0.7882 C   0  0  0  0  0  0  0  0  0  0  0  0
  -84.4262   29.2092    1.4560 C   0  0  0  0  0  0  0  0  0  0  0  0
  -84.6009   27.9693    2.0491 C   0  0  0  0  0  0  0  0  0  0  0  0
  -85.8468   27.3865    1.9421 C   0  0  0  0  0  0  0  0  0  0  0  0
  -86.0562   26.2645    2.4619 O   0  0  0  0  0  0  0  0  0  0  0  0
  -90.2794   26.9222    2.1278 C   0  0  0  0  0  0  0  0  0  0  0  0
  -90.6439   26.3221    0.9483 C   0  0  0  0  0  0  0  0  0  0  0  0
  -89.7735   26.2679   -0.1359 C   0  0  0  0  0  0  0  0  0  0  0  0
  -88.5337   26.8299   -0.0036 C   0  0  0  0  0  0  0  0  0  0  0  0
  -87.4346   26.7653   -1.3641 Cl  0  0  0  0  0  0  0  0  0  0  0  0
  -88.1305   27.4402    1.1612 C   0  0  0  0  0  0  0  0  0  0  0  0
  -89.0265   27.4765    2.2255 C   0  0  0  0  0  0  0  0  0  0  0  0
  -88.5347   28.2443    3.7121 Cl  0  0  0  0  0  0  0  0  0  0  0  0
  -91.1365   26.2311    4.3554 C   0  0  0  0  0  0  0  0  0  0  0  0
  -91.1561   26.9618    3.1779 O   0  0  0  0  0  0  0  0  0  0  0  0
  -90.1579   25.6593   -1.3163 O   0  0  0  0  0  0  0  0  0  0  0  0
  -90.1429   24.2517   -1.3873 C   0  0  0  0  0  0  0  0  0  0  0  0
  -87.1479   33.5281   -1.8971 C   0  0  0  0  0  0  0  0  0  0  0  0
  -88.5087   33.2782   -1.7343 C   0  0  0  0  0  0  0  0  0  0  0  0
  -89.1664   34.0349   -2.6314 N   0  0  0  0  0  0  0  0  0  0  0  0
  -88.2930   34.7468   -3.3493 N   0  0  0  0  0  0  0  0  0  0  0  0
  -87.0645   34.4530   -2.9185 C   0  0  0  0  0  0  0  0  0  0  0  0
  -88.5980   35.6857   -4.4183 C   0  0  0  0  0  0  0  0  0  0  0  0
  -87.3434   35.9480   -5.1839 C   0  0  0  0  0  0  0  0  0  0  0  0
  -87.0282   37.4171   -5.3459 C   0  0  0  0  0  0  0  0  0  0  0  0
  -87.0826   38.1458   -4.1184 N   0  0  0  0  0  0  0  0  0  0  0  0
  -88.1220   37.7509   -3.2230 C   0  0  0  0  0  0  0  0  0  0  0  0
  -89.2189   36.9535   -3.8740 C   0  0  0  0  0  0  0  0  0  0  0  0
  -86.1835   38.2339   -3.6112 H   0  0  0  0  0  0  0  0  0  0  0  0
 25 26  1  0  0  0
 26 17  1  0  0  0
 17 18  2  0  0  0
 18 19  1  0  0  0
 19 27  1  0  0  0
 27 28  1  0  0  0
 19 20  2  0  0  0
 20 21  1  0  0  0
 20 22  1  0  0  0
 22 23  2  0  0  0
 23 24  1  0  0  0
 22 10  1  0  0  0
 10 11  1  0  0  0
 11 12  2  0  0  0
 12 13  1  0  0  0
 13 14  2  0  0  0
 14 15  1  0  0  0
 15 16  2  0  0  0
 12  1  1  0  0  0
  1  2  2  0  0  0
  2  3  1  0  0  0
  3  4  2  0  0  0
  4  5  1  0  0  0
  5  6  2  0  0  0
  6  7  1  0  0  0
  3 29  1  0  0  0
 29 30  1  0  0  0
 30 31  2  0  0  0
 31 32  1  0  0  0
 32 33  1  0  0  0
 32 34  1  0  0  0
 34 35  1  0  0  0
 35 36  1  0  0  0
 36 37  1  0  0  0
 37 38  1  0  0  0
 38 39  1  0  0  0
 23 17  1  0  0  0
 15 10  1  0  0  0
  6  1  1  0  0  0
 33 29  2  0  0  0
 39 34  1  0  0  0
  7  8  1  0  0  0
  7  9  1  0  0  0
 37 40  1  0  0  0
M  END
> <minimizedAffinity>
-8.77525

> <CNNscore>
0.2813454866

> <CNNaffinity>
7.7105941772

> <CNN_VS>
2.1693408489

> <CNNaffinity_variance>
0.2703039050

$$$$
[H]c1nc(N([H])[H])c(-c2nn(-c3c(Cl)c(OC([H])([H])[H])c([H])c(OC([H])([H])[H])c3Cl)c(=O)c([H])c2[H])nc1-c1c([H])nn(C2([H])C([H])([H])C([H])([H])N([H])C([H])([H])C2([H])[H])c1[H]


 40 44  0  0  0  0  0  0  0  0999 V2000
  -85.3279   31.0796    0.1885 C   0  0  0  0  0  0  0  0  0  0  0  0
  -86.3063   31.6859   -0.5429 N   0  0  0  0  0  0  0  0  0  0  0  0
  -86.1260   32.8755   -1.1094 C   0  0  0  0  0  0  0  0  0  0  0  0
  -84.9215   33.5025   -0.9487 C   0  0  0  0  0  0  0  0  0  0  0  0
  -83.9086   32.9536   -0.2338 N   0  0  0  0  0  0  0  0  0  0  0  0
  -84.1384   31.7465    0.3214 C   0  0  0  0  0  0  0  0  0  0  0  0
  -83.1032   31.1592    1.0678 N   0  0  0  0  0  0  0  0  0  0  0  0
  -83.0197   31.4249    2.0737 H   0  0  0  0  0  0  0  0  0  0  0  0
  -82.4626   30.4924    0.6136 H   0  0  0  0  0  0  0  0  0  0  0  0
  -86.9224   27.9937    1.3234 N   0  0  0  0  0  0  0  0  0  0  0  0
  -86.7264   29.1874    0.7591 N   0  0  0  0  0  0  0  0  0  0  0  0
  -85.5231   29.7843    0.8048 C   0  0  0  0  0  0  0  0  0  0  0  0
  -84.4942   29.1382    1.4465 C   0  0  0  0  0  0  0  0  0  0  0  0
  -84.6791   27.8988    2.0375 C   0  0  0  0  0  0  0  0  0  0  0  0
  -85.9379   27.3402    1.9557 C   0  0  0  0  0  0  0  0  0  0  0  0
  -86.1570   26.2197    2.4747 O   0  0  0  0  0  0  0  0  0  0  0  0
  -89.9227   26.2902   -0.0600 C   0  0  0  0  0  0  0  0  0  0  0  0
  -90.7737   26.3767    1.0135 C   0  0  0  0  0  0  0  0  0  0  0  0
  -90.3822   26.9879    2.2006 C   0  0  0  0  0  0  0  0  0  0  0  0
  -89.1194   27.5072    2.2793 C   0  0  0  0  0  0  0  0  0  0  0  0
  -88.6211   28.2770    3.7701 Cl  0  0  0  0  0  0  0  0  0  0  0  0
  -88.2370   27.4411    1.2263 C   0  0  0  0  0  0  0  0  0  0  0  0
  -88.6617   26.8225    0.0542 C   0  0  0  0  0  0  0  0  0  0  0  0
  -87.5590   26.7292   -1.2937 Cl  0  0  0  0  0  0  0  0  0  0  0  0
  -91.0624   24.5142   -1.3721 C   0  0  0  0  0  0  0  0  0  0  0  0
  -90.3339   25.6827   -1.2153 O   0  0  0  0  0  0  0  0  0  0  0  0
  -91.2529   27.0657    3.2717 O   0  0  0  0  0  0  0  0  0  0  0  0
  -91.0751   26.1796    4.3533 C   0  0  0  0  0  0  0  0  0  0  0  0
  -87.1837   33.4931   -1.8839 C   0  0  0  0  0  0  0  0  0  0  0  0
  -88.5468   33.2516   -1.7272 C   0  0  0  0  0  0  0  0  0  0  0  0
  -89.1959   34.0133   -2.6264 N   0  0  0  0  0  0  0  0  0  0  0  0
  -88.3149   34.7203   -3.3398 N   0  0  0  0  0  0  0  0  0  0  0  0
  -87.0902   34.4183   -2.9041 C   0  0  0  0  0  0  0  0  0  0  0  0
  -88.6094   35.6621   -4.4093 C   0  0  0  0  0  0  0  0  0  0  0  0
  -87.3536   35.9048   -5.1791 C   0  0  0  0  0  0  0  0  0  0  0  0
  -87.0172   37.3689   -5.3443 C   0  0  0  0  0  0  0  0  0  0  0  0
  -87.0571   38.1001   -4.1176 N   0  0  0  0  0  0  0  0  0  0  0  0
  -88.0994   37.7217   -3.2185 C   0  0  0  0  0  0  0  0  0  0  0  0
  -89.2099   36.9396   -3.8649 C   0  0  0  0  0  0  0  0  0  0  0  0
  -86.1552   38.1757   -3.6133 H   0  0  0  0  0  0  0  0  0  0  0  0
 25 26  1  0  0  0
 26 17  1  0  0  0
 17 18  2  0  0  0
 18 19  1  0  0  0
 19 27  1  0  0  0
 27 28  1  0  0  0
 19 20  2  0  0  0
 20 21  1  0  0  0
 20 22  1  0  0  0
 22 23  2  0  0  0
 23 24  1  0  0  0
 22 10  1  0  0  0
 10 11  1  0  0  0
 11 12  2  0  0  0
 12 13  1  0  0  0
 13 14  2  0  0  0
 14 15  1  0  0  0
 15 16  2  0  0  0
 12  1  1  0  0  0
  1  2  2  0  0  0
  2  3  1  0  0  0
  3  4  2  0  0  0
  4  5  1  0  0  0
  5  6  2  0  0  0
  6  7  1  0  0  0
  3 29  1  0  0  0
 29 30  1  0  0  0
 30 31  2  0  0  0
 31 32  1  0  0  0
 32 33  1  0  0  0
 32 34  1  0  0  0
 34 35  1  0  0  0
 35 36  1  0  0  0
 36 37  1  0  0  0
 37 38  1  0  0  0
 38 39  1  0  0  0
 23 17  1  0  0  0
 15 10  1  0  0  0
  6  1  1  0  0  0
 33 29  2  0  0  0
 39 34  1  0  0  0
  7  8  1  0  0  0
  7  9  1  0  0  0
 37 40  1  0  0  0
M  END
> <minimizedAffinity>
-8.79415

> <CNNscore>
0.2350822091

> <CNNaffinity>
7.6269850731

> <CNN_VS>
1.7929685116

> <CNNaffinity_variance>
0.2945609391

$$$$
[H]c1nc(N([H])[H])c(-c2nn(-c3c(Cl)c(OC([H])([H])[H])c([H])c(OC([H])([H])[H])c3Cl)c(=O)c([H])c2[H])nc1-c1c([H])nn(C2([H])C([H])([H])C([H])([H])N([H])C([H])([H])C2([H])[H])c1[H]


 40 44  0  0  0  0  0  0  0  0999 V2000
  -87.5525   32.0914   -2.0453 C   0  0  0  0  0  0  0  0  0  0  0  0
  -88.0243   30.9787   -1.4136 N   0  0  0  0  0  0  0  0  0  0  0  0
  -87.4224   30.4695   -0.3428 C   0  0  0  0  0  0  0  0  0  0  0  0
  -86.2978   31.0854    0.1323 C   0  0  0  0  0  0  0  0  0  0  0  0
  -85.7780   32.1941   -0.4499 N   0  0  0  0  0  0  0  0  0  0  0  0
  -86.4230   32.6735   -1.5326 C   0  0  0  0  0  0  0  0  0  0  0  0
  -85.9015   33.8210   -2.1530 N   0  0  0  0  0  0  0  0  0  0  0  0
  -85.1476   33.6884   -2.8627 H   0  0  0  0  0  0  0  0  0  0  0  0
  -86.2681   34.7493   -1.8980 H   0  0  0  0  0  0  0  0  0  0  0  0
  -89.1587   34.4722   -4.3048 N   0  0  0  0  0  0  0  0  0  0  0  0
  -88.5534   33.9454   -3.2381 N   0  0  0  0  0  0  0  0  0  0  0  0
  -88.2076   32.6470   -3.2107 C   0  0  0  0  0  0  0  0  0  0  0  0
  -88.4908   31.8694   -4.3074 C   0  0  0  0  0  0  0  0  0  0  0  0
  -89.1182   32.3990   -5.4234 C   0  0  0  0  0  0  0  0  0  0  0  0
  -89.4472   33.7383   -5.3884 C   0  0  0  0  0  0  0  0  0  0  0  0
  -90.0166   34.2658   -6.3736 O   0  0  0  0  0  0  0  0  0  0  0  0
  -88.7984   38.1717   -4.2664 C   0  0  0  0  0  0  0  0  0  0  0  0
  -90.1089   38.5465   -4.1043 C   0  0  0  0  0  0  0  0  0  0  0  0
  -91.1257   37.6018   -4.0074 C   0  0  0  0  0  0  0  0  0  0  0  0
  -90.7920   36.2773   -4.0773 C   0  0  0  0  0  0  0  0  0  0  0  0
  -92.0667   35.0842   -3.9564 Cl  0  0  0  0  0  0  0  0  0  0  0  0
  -89.4911   35.8609   -4.2390 C   0  0  0  0  0  0  0  0  0  0  0  0
  -88.4994   36.8328   -4.3326 C   0  0  0  0  0  0  0  0  0  0  0  0
  -86.8430   36.3262   -4.5364 Cl  0  0  0  0  0  0  0  0  0  0  0  0
  -87.0683   39.7008   -3.3479 C   0  0  0  0  0  0  0  0  0  0  0  0
  -87.8185   39.1225   -4.3596 O   0  0  0  0  0  0  0  0  0  0  0  0
  -92.4402   37.9979   -3.8445 O   0  0  0  0  0  0  0  0  0  0  0  0
  -93.1558   38.4470   -4.9727 C   0  0  0  0  0  0  0  0  0  0  0  0
  -87.9496   29.2875    0.3092 C   0  0  0  0  0  0  0  0  0  0  0  0
  -87.2330   28.4430    1.1543 C   0  0  0  0  0  0  0  0  0  0  0  0
  -88.0706   27.4688    1.5535 N   0  0  0  0  0  0  0  0  0  0  0  0
  -89.2747   27.6550    1.0053 N   0  0  0  0  0  0  0  0  0  0  0  0
  -89.2207   28.7524    0.2480 C   0  0  0  0  0  0  0  0  0  0  0  0
  -90.4560   26.8245    1.1848 C   0  0  0  0  0  0  0  0  0  0  0  0
  -90.2394   25.9529    2.3773 C   0  0  0  0  0  0  0  0  0  0  0  0
  -90.4819   24.4858    2.1078 C   0  0  0  0  0  0  0  0  0  0  0  0
  -89.8019   24.0042    0.9474 N   0  0  0  0  0  0  0  0  0  0  0  0
  -89.7536   24.9155   -0.1504 C   0  0  0  0  0  0  0  0  0  0  0  0
  -90.7617   26.0287   -0.0651 C   0  0  0  0  0  0  0  0  0  0  0  0
  -88.8661   23.5931    1.1166 H   0  0  0  0  0  0  0  0  0  0  0  0
 25 26  1  0  0  0
 26 17  1  0  0  0
 17 18  2  0  0  0
 18 19  1  0  0  0
 19 27  1  0  0  0
 27 28  1  0  0  0
 19 20  2  0  0  0
 20 21  1  0  0  0
 20 22  1  0  0  0
 22 23  2  0  0  0
 23 24  1  0  0  0
 22 10  1  0  0  0
 10 11  1  0  0  0
 11 12  2  0  0  0
 12 13  1  0  0  0
 13 14  2  0  0  0
 14 15  1  0  0  0
 15 16  2  0  0  0
 12  1  1  0  0  0
  1  2  2  0  0  0
  2  3  1  0  0  0
  3  4  2  0  0  0
  4  5  1  0  0  0
  5  6  2  0  0  0
  6  7  1  0  0  0
  3 29  1  0  0  0
 29 30  1  0  0  0
 30 31  2  0  0  0
 31 32  1  0  0  0
 32 33  1  0  0  0
 32 34  1  0  0  0
 34 35  1  0  0  0
 35 36  1  0  0  0
 36 37  1  0  0  0
 37 38  1  0  0  0
 38 39  1  0  0  0
 23 17  1  0  0  0
 15 10  1  0  0  0
  6  1  1  0  0  0
 33 29  2  0  0  0
 39 34  1  0  0  0
  7  8  1  0  0  0
  7  9  1  0  0  0
 37 40  1  0  0  0
M  END
> <minimizedAffinity>
-7.17279

> <CNNscore>
0.0925086811

> <CNNaffinity>
6.7821359634

> <CNN_VS>
0.6274064779

> <CNNaffinity_variance>
0.2962529659

$$$$
[H]c1nc(N([H])[H])c(-c2nn(-c3c(Cl)c(OC([H])([H])[H])c([H])c(OC([H])([H])[H])c3Cl)c(=O)c([H])c2[H])nc1-c1c([H])nn(C2([H])C([H])([H])C([H])([H])N([H])C([H])([H])C2([H])[H])c1[H]


 40 44  0  0  0  0  0  0  0  0999 V2000
  -86.1679   31.2894   -0.0852 C   0  0  0  0  0  0  0  0  0  0  0  0
  -87.1848   31.5824   -0.9455 N   0  0  0  0  0  0  0  0  0  0  0  0
  -87.2889   32.7711   -1.5325 C   0  0  0  0  0  0  0  0  0  0  0  0
  -86.3448   33.7220   -1.2600 C   0  0  0  0  0  0  0  0  0  0  0  0
  -85.3098   33.4940   -0.4144 N   0  0  0  0  0  0  0  0  0  0  0  0
  -85.2463   32.2741    0.1565 C   0  0  0  0  0  0  0  0  0  0  0  0
  -84.1828   32.0159    1.0374 N   0  0  0  0  0  0  0  0  0  0  0  0
  -84.3004   32.2977    2.0355 H   0  0  0  0  0  0  0  0  0  0  0  0
  -83.3275   31.5628    0.6845 H   0  0  0  0  0  0  0  0  0  0  0  0
  -86.9703   27.9123    1.0570 N   0  0  0  0  0  0  0  0  0  0  0  0
  -87.0604   29.1090    0.4727 N   0  0  0  0  0  0  0  0  0  0  0  0
  -86.0534   29.9954    0.5537 C   0  0  0  0  0  0  0  0  0  0  0  0
  -84.9243   29.6434    1.2529 C   0  0  0  0  0  0  0  0  0  0  0  0
  -84.8129   28.4058    1.8656 C   0  0  0  0  0  0  0  0  0  0  0  0
  -85.8817   27.5417    1.7452 C   0  0  0  0  0  0  0  0  0  0  0  0
  -85.8304   26.4092    2.2817 O   0  0  0  0  0  0  0  0  0  0  0  0
  -89.3963   25.5183   -0.4262 C   0  0  0  0  0  0  0  0  0  0  0  0
  -90.2615   25.3578    0.6272 C   0  0  0  0  0  0  0  0  0  0  0  0
  -90.0660   26.0240    1.8329 C   0  0  0  0  0  0  0  0  0  0  0  0
  -88.9836   26.8516    1.9509 C   0  0  0  0  0  0  0  0  0  0  0  0
  -88.7322   27.6922    3.4653 Cl  0  0  0  0  0  0  0  0  0  0  0  0
  -88.0937   27.0395    0.9190 C   0  0  0  0  0  0  0  0  0  0  0  0
  -88.3196   26.3572   -0.2727 C   0  0  0  0  0  0  0  0  0  0  0  0
  -87.2042   26.5824   -1.5943 Cl  0  0  0  0  0  0  0  0  0  0  0  0
  -89.9545   23.5209   -1.7950 C   0  0  0  0  0  0  0  0  0  0  0  0
  -89.6125   24.8498   -1.6007 O   0  0  0  0  0  0  0  0  0  0  0  0
  -90.9480   25.8501    2.8834 O   0  0  0  0  0  0  0  0  0  0  0  0
  -90.7575   24.7566    3.7520 C   0  0  0  0  0  0  0  0  0  0  0  0
  -88.3792   33.0516   -2.4450 C   0  0  0  0  0  0  0  0  0  0  0  0
  -88.8324   34.3211   -2.7968 C   0  0  0  0  0  0  0  0  0  0  0  0
  -89.8507   34.1592   -3.6609 N   0  0  0  0  0  0  0  0  0  0  0  0
  -90.0623   32.8570   -3.8714 N   0  0  0  0  0  0  0  0  0  0  0  0
  -89.1800   32.1700   -3.1430 C   0  0  0  0  0  0  0  0  0  0  0  0
  -91.0695   32.2626   -4.7373 C   0  0  0  0  0  0  0  0  0  0  0  0
  -92.1577   33.2631   -4.9461 C   0  0  0  0  0  0  0  0  0  0  0  0
  -93.5394   32.7259   -4.6523 C   0  0  0  0  0  0  0  0  0  0  0  0
  -93.6340   32.0707   -3.3864 N   0  0  0  0  0  0  0  0  0  0  0  0
  -92.4926   31.2976   -3.0157 C   0  0  0  0  0  0  0  0  0  0  0  0
  -91.5839   30.9596   -4.1659 C   0  0  0  0  0  0  0  0  0  0  0  0
  -93.9374   32.6679   -2.5960 H   0  0  0  0  0  0  0  0  0  0  0  0
 25 26  1  0  0  0
 26 17  1  0  0  0
 17 18  2  0  0  0
 18 19  1  0  0  0
 19 27  1  0  0  0
 27 28  1  0  0  0
 19 20  2  0  0  0
 20 21  1  0  0  0
 20 22  1  0  0  0
 22 23  2  0  0  0
 23 24  1  0  0  0
 22 10  1  0  0  0
 10 11  1  0  0  0
 11 12  2  0  0  0
 12 13  1  0  0  0
 13 14  2  0  0  0
 14 15  1  0  0  0
 15 16  2  0  0  0
 12  1  1  0  0  0
  1  2  2  0  0  0
  2  3  1  0  0  0
  3  4  2  0  0  0
  4  5  1  0  0  0
  5  6  2  0  0  0
  6  7  1  0  0  0
  3 29  1  0  0  0
 29 30  1  0  0  0
 30 31  2  0  0  0
 31 32  1  0  0  0
 32 33  1  0  0  0
 32 34  1  0  0  0
 34 35  1  0  0  0
 35 36  1  0  0  0
 36 37  1  0  0  0
 37 38  1  0  0  0
 38 39  1  0  0  0
 23 17  1  0  0  0
 15 10  1  0  0  0
  6  1  1  0  0  0
 33 29  2  0  0  0
 39 34  1  0  0  0
  7  8  1  0  0  0
  7  9  1  0  0  0
 37 40  1  0  0  0
M  END
> <minimizedAffinity>
-8.61248

> <CNNscore>
0.0543316305

> <CNNaffinity>
7.0165467262

> <CNN_VS>
0.3812204301

> <CNNaffinity_variance>
0.4597589970

$$$$
[H]c1nc(N([H])[H])c(-c2nn(-c3c(Cl)c(OC([H])([H])[H])c([H])c(OC([H])([H])[H])c3Cl)c(=O)c([H])c2[H])nc1-c1c([H])nn(C2([H])C([H])([H])C([H])([H])N([H])C([H])([H])C2([H])[H])c1[H]


 40 44  0  0  0  0  0  0  0  0999 V2000
  -88.0677   32.5242   -2.4285 C   0  0  0  0  0  0  0  0  0  0  0  0
  -88.6957   31.4446   -1.8811 N   0  0  0  0  0  0  0  0  0  0  0  0
  -88.1786   30.7758   -0.8546 C   0  0  0  0  0  0  0  0  0  0  0  0
  -86.9814   31.1890   -0.3390 C   0  0  0  0  0  0  0  0  0  0  0  0
  -86.3067   32.2541   -0.8376 N   0  0  0  0  0  0  0  0  0  0  0  0
  -86.8707   32.9005   -1.8780 C   0  0  0  0  0  0  0  0  0  0  0  0
  -86.1885   34.0065   -2.4116 N   0  0  0  0  0  0  0  0  0  0  0  0
  -85.4563   33.8230   -3.1327 H   0  0  0  0  0  0  0  0  0  0  0  0
  -86.4221   34.9553   -2.0853 H   0  0  0  0  0  0  0  0  0  0  0  0
  -89.2963   35.2738   -4.4981 N   0  0  0  0  0  0  0  0  0  0  0  0
  -88.7784   34.5875   -3.4772 N   0  0  0  0  0  0  0  0  0  0  0  0
  -88.6303   33.2534   -3.5454 C   0  0  0  0  0  0  0  0  0  0  0  0
  -89.0243   32.6075   -4.6923 C   0  0  0  0  0  0  0  0  0  0  0  0
  -89.5636   33.3034   -5.7620 C   0  0  0  0  0  0  0  0  0  0  0  0
  -89.6891   34.6708   -5.6287 C   0  0  0  0  0  0  0  0  0  0  0  0
  -90.1715   35.3465   -6.5687 O   0  0  0  0  0  0  0  0  0  0  0  0
  -90.7853   38.6200   -3.8632 C   0  0  0  0  0  0  0  0  0  0  0  0
  -89.6775   39.4165   -4.0128 C   0  0  0  0  0  0  0  0  0  0  0  0
  -88.4329   38.8757   -4.3198 C   0  0  0  0  0  0  0  0  0  0  0  0
  -88.3320   37.5203   -4.4720 C   0  0  0  0  0  0  0  0  0  0  0  0
  -86.7689   36.8342   -4.8579 Cl  0  0  0  0  0  0  0  0  0  0  0  0
  -89.4179   36.6881   -4.3306 C   0  0  0  0  0  0  0  0  0  0  0  0
  -90.6476   37.2628   -4.0230 C   0  0  0  0  0  0  0  0  0  0  0  0
  -92.0377   36.2256   -3.8408 Cl  0  0  0  0  0  0  0  0  0  0  0  0
  -92.9438   39.7203   -4.4156 C   0  0  0  0  0  0  0  0  0  0  0  0
  -91.9973   39.1788   -3.5602 O   0  0  0  0  0  0  0  0  0  0  0  0
  -87.3278   39.6936   -4.4666 O   0  0  0  0  0  0  0  0  0  0  0  0
  -86.3530   39.7021   -3.4487 C   0  0  0  0  0  0  0  0  0  0  0  0
  -88.8715   29.6341   -0.2920 C   0  0  0  0  0  0  0  0  0  0  0  0
  -90.2545   29.4777   -0.2308 C   0  0  0  0  0  0  0  0  0  0  0  0
  -90.4993   28.2928    0.3574 N   0  0  0  0  0  0  0  0  0  0  0  0
  -89.3454   27.6959    0.6693 N   0  0  0  0  0  0  0  0  0  0  0  0
  -88.3478   28.4938    0.2833 C   0  0  0  0  0  0  0  0  0  0  0  0
  -89.1753   26.4033    1.3157 C   0  0  0  0  0  0  0  0  0  0  0  0
  -90.5145   25.7521    1.4210 C   0  0  0  0  0  0  0  0  0  0  0  0
  -90.8504   25.2788    2.8164 C   0  0  0  0  0  0  0  0  0  0  0  0
  -90.6481   26.2787    3.8165 N   0  0  0  0  0  0  0  0  0  0  0  0
  -89.5063   27.1126    3.6195 C   0  0  0  0  0  0  0  0  0  0  0  0
  -88.4954   26.5476    2.6595 C   0  0  0  0  0  0  0  0  0  0  0  0
  -91.4787   26.8529    4.0483 H   0  0  0  0  0  0  0  0  0  0  0  0
 25 26  1  0  0  0
 26 17  1  0  0  0
 17 18  2  0  0  0
 18 19  1  0  0  0
 19 27  1  0  0  0
 27 28  1  0  0  0
 19 20  2  0  0  0
 20 21  1  0  0  0
 20 22  1  0  0  0
 22 23  2  0  0  0
 23 24  1  0  0  0
 22 10  1  0  0  0
 10 11  1  0  0  0
 11 12  2  0  0  0
 12 13  1  0  0  0
 13 14  2  0  0  0
 14 15  1  0  0  0
 15 16  2  0  0  0
 12  1  1  0  0  0
  1  2  2  0  0  0
  2  3  1  0  0  0
  3  4  2  0  0  0
  4  5  1  0  0  0
  5  6  2  0  0  0
  6  7  1  0  0  0
  3 29  1  0  0  0
 29 30  1  0  0  0
 30 31  2  0  0  0
 31 32  1  0  0  0
 32 33  1  0  0  0
 32 34  1  0  0  0
 34 35  1  0  0  0
 35 36  1  0  0  0
 36 37  1  0  0  0
 37 38  1  0  0  0
 38 39  1  0  0  0
 23 17  1  0  0  0
 15 10  1  0  0  0
  6  1  1  0  0  0
 33 29  2  0  0  0
 39 34  1  0  0  0
  7  8  1  0  0  0
  7  9  1  0  0  0
 37 40  1  0  0  0
M  END
> <minimizedAffinity>
-7.18345

> <CNNscore>
0.0494080782

> <CNNaffinity>
6.3902683258

> <CNN_VS>
0.3157308698

> <CNNaffinity_variance>
0.3112669289

$$$$
[H]c1nc(N([H])[H])c(-c2nn(-c3c(Cl)c(OC([H])([H])[H])c([H])c(OC([H])([H])[H])c3Cl)c(=O)c([H])c2[H])nc1-c1c([H])nn(C2([H])C([H])([H])C([H])([H])N([H])C([H])([H])C2([H])[H])c1[H]


 40 44  0  0  0  0  0  0  0  0999 V2000
  -89.2089   32.0532   -2.2430 C   0  0  0  0  0  0  0  0  0  0  0  0
  -88.0470   31.9354   -1.5388 N   0  0  0  0  0  0  0  0  0  0  0  0
  -87.0843   32.8498   -1.6123 C   0  0  0  0  0  0  0  0  0  0  0  0
  -87.2727   33.9368   -2.4202 C   0  0  0  0  0  0  0  0  0  0  0  0
  -88.4042   34.1128   -3.1460 N   0  0  0  0  0  0  0  0  0  0  0  0
  -89.3518   33.1594   -3.0388 C   0  0  0  0  0  0  0  0  0  0  0  0
  -90.5324   33.3204   -3.7830 N   0  0  0  0  0  0  0  0  0  0  0  0
  -90.5335   32.9811   -4.7701 H   0  0  0  0  0  0  0  0  0  0  0  0
  -91.3544   33.7612   -3.3456 H   0  0  0  0  0  0  0  0  0  0  0  0
  -91.0048   28.9779   -1.4241 N   0  0  0  0  0  0  0  0  0  0  0  0
  -90.0481   29.9051   -1.5060 N   0  0  0  0  0  0  0  0  0  0  0  0
  -90.2578   31.0586   -2.1630 C   0  0  0  0  0  0  0  0  0  0  0  0
  -91.4823   31.2654   -2.7510 C   0  0  0  0  0  0  0  0  0  0  0  0
  -92.4872   30.3146   -2.6760 C   0  0  0  0  0  0  0  0  0  0  0  0
  -92.2083   29.1521   -1.9875 C   0  0  0  0  0  0  0  0  0  0  0  0
  -93.0845   28.2600   -1.8909 O   0  0  0  0  0  0  0  0  0  0  0  0
  -90.0095   25.4669   -0.7177 C   0  0  0  0  0  0  0  0  0  0  0  0
  -90.0781   25.4610    0.6532 C   0  0  0  0  0  0  0  0  0  0  0  0
  -90.4467   26.5984    1.3647 C   0  0  0  0  0  0  0  0  0  0  0  0
  -90.7431   27.7357    0.6654 C   0  0  0  0  0  0  0  0  0  0  0  0
  -91.2071   29.1698    1.5549 Cl  0  0  0  0  0  0  0  0  0  0  0  0
  -90.6866   27.7824   -0.7081 C   0  0  0  0  0  0  0  0  0  0  0  0
  -90.3140   26.6265   -1.3878 C   0  0  0  0  0  0  0  0  0  0  0  0
  -90.2375   26.6637   -3.1297 Cl  0  0  0  0  0  0  0  0  0  0  0  0
  -90.4198   23.2407   -1.7428 C   0  0  0  0  0  0  0  0  0  0  0  0
  -89.6432   24.3337   -1.3920 O   0  0  0  0  0  0  0  0  0  0  0  0
  -90.5102   26.5740    2.7456 O   0  0  0  0  0  0  0  0  0  0  0  0
  -89.4924   25.9077    3.4576 C   0  0  0  0  0  0  0  0  0  0  0  0
  -85.8617   32.6987   -0.8491 C   0  0  0  0  0  0  0  0  0  0  0  0
  -84.6373   33.2864   -1.1593 C   0  0  0  0  0  0  0  0  0  0  0  0
  -83.7583   32.9068   -0.2143 N   0  0  0  0  0  0  0  0  0  0  0  0
  -84.3635   32.1123    0.6731 N   0  0  0  0  0  0  0  0  0  0  0  0
  -85.6388   31.9746    0.3050 C   0  0  0  0  0  0  0  0  0  0  0  0
  -83.7637   31.4922    1.8449 C   0  0  0  0  0  0  0  0  0  0  0  0
  -82.7923   30.4574    1.3821 C   0  0  0  0  0  0  0  0  0  0  0  0
  -83.0032   29.1016    2.0157 C   0  0  0  0  0  0  0  0  0  0  0  0
  -84.3570   28.6504    1.9480 N   0  0  0  0  0  0  0  0  0  0  0  0
  -85.3452   29.6649    2.1279 C   0  0  0  0  0  0  0  0  0  0  0  0
  -84.8207   30.9224    2.7653 C   0  0  0  0  0  0  0  0  0  0  0  0
  -84.5907   28.0603    1.1292 H   0  0  0  0  0  0  0  0  0  0  0  0
 25 26  1  0  0  0
 26 17  1  0  0  0
 17 18  2  0  0  0
 18 19  1  0  0  0
 19 27  1  0  0  0
 27 28  1  0  0  0
 19 20  2  0  0  0
 20 21  1  0  0  0
 20 22  1  0  0  0
 22 23  2  0  0  0
 23 24  1  0  0  0
 22 10  1  0  0  0
 10 11  1  0  0  0
 11 12  2  0  0  0
 12 13  1  0  0  0
 13 14  2  0  0  0
 14 15  1  0  0  0
 15 16  2  0  0  0
 12  1  1  0  0  0
  1  2  2  0  0  0
  2  3  1  0  0  0
  3  4  2  0  0  0
  4  5  1  0  0  0
  5  6  2  0  0  0
  6  7  1  0  0  0
  3 29  1  0  0  0
 29 30  1  0  0  0
 30 31  2  0  0  0
 31 32  1  0  0  0
 32 33  1  0  0  0
 32 34  1  0  0  0
 34 35  1  0  0  0
 35 36  1  0  0  0
 36 37  1  0  0  0
 37 38  1  0  0  0
 38 39  1  0  0  0
 23 17  1  0  0  0
 15 10  1  0  0  0
  6  1  1  0  0  0
 33 29  2  0  0  0
 39 34  1  0  0  0
  7  8  1  0  0  0
  7  9  1  0  0  0
 37 40  1  0  0  0
M  END
> <minimizedAffinity>
-9.51852

> <CNNscore>
0.0490775108

> <CNNaffinity>
7.1722784042

> <CNN_VS>
0.3519975841

> <CNNaffinity_variance>
0.2307228595

$$$$
[H]c1nc(N([H])[H])c(-c2nn(-c3c(Cl)c(OC([H])([H])[H])c([H])c(OC([H])([H])[H])c3Cl)c(=O)c([H])c2[H])nc1-c1c([H])nn(C2([H])C([H])([H])C([H])([H])N([H])C([H])([H])C2([H])[H])c1[H]


 40 44  0  0  0  0  0  0  0  0999 V2000
  -86.1378   31.2627   -0.1119 C   0  0  0  0  0  0  0  0  0  0  0  0
  -87.1594   31.5643   -0.9634 N   0  0  0  0  0  0  0  0  0  0  0  0
  -87.2516   32.7495   -1.5594 C   0  0  0  0  0  0  0  0  0  0  0  0
  -86.2900   33.6879   -1.3052 C   0  0  0  0  0  0  0  0  0  0  0  0
  -85.2495   33.4509   -0.4690 N   0  0  0  0  0  0  0  0  0  0  0  0
  -85.1985   32.2349    0.1116 C   0  0  0  0  0  0  0  0  0  0  0  0
  -84.1295   31.9675    0.9829 N   0  0  0  0  0  0  0  0  0  0  0  0
  -84.2318   32.2594    1.9799 H   0  0  0  0  0  0  0  0  0  0  0  0
  -83.2852   31.4984    0.6247 H   0  0  0  0  0  0  0  0  0  0  0  0
  -86.9646   27.8935    1.0362 N   0  0  0  0  0  0  0  0  0  0  0  0
  -87.0428   29.0868    0.4432 N   0  0  0  0  0  0  0  0  0  0  0  0
  -86.0362   29.9724    0.5367 C   0  0  0  0  0  0  0  0  0  0  0  0
  -84.9201   29.6232    1.2578 C   0  0  0  0  0  0  0  0  0  0  0  0
  -84.8212   28.3892    1.8797 C   0  0  0  0  0  0  0  0  0  0  0  0
  -85.8887   27.5257    1.7457 C   0  0  0  0  0  0  0  0  0  0  0  0
  -85.8485   26.3964    2.2898 O   0  0  0  0  0  0  0  0  0  0  0  0
  -90.0682   25.9968    1.8024 C   0  0  0  0  0  0  0  0  0  0  0  0
  -90.2534   25.3345    0.6145 C   0  0  0  0  0  0  0  0  0  0  0  0
  -89.3730   25.4976   -0.4505 C   0  0  0  0  0  0  0  0  0  0  0  0
  -88.3072   26.3396   -0.2905 C   0  0  0  0  0  0  0  0  0  0  0  0
  -87.1965   26.5491   -1.6267 Cl  0  0  0  0  0  0  0  0  0  0  0  0
  -88.0866   27.0212    0.8836 C   0  0  0  0  0  0  0  0  0  0  0  0
  -88.9872   26.8347    1.9282 C   0  0  0  0  0  0  0  0  0  0  0  0
  -88.7250   27.6883    3.4262 Cl  0  0  0  0  0  0  0  0  0  0  0  0
  -90.8406   24.9896    3.9387 C   0  0  0  0  0  0  0  0  0  0  0  0
  -90.9505   25.8182    2.8332 O   0  0  0  0  0  0  0  0  0  0  0  0
  -89.5755   24.8223   -1.6398 O   0  0  0  0  0  0  0  0  0  0  0  0
  -89.9235   23.4573   -1.5915 C   0  0  0  0  0  0  0  0  0  0  0  0
  -88.3474   33.0394   -2.4623 C   0  0  0  0  0  0  0  0  0  0  0  0
  -88.8131   34.3119   -2.7859 C   0  0  0  0  0  0  0  0  0  0  0  0
  -89.8328   34.1590   -3.6500 N   0  0  0  0  0  0  0  0  0  0  0  0
  -90.0335   32.8596   -3.8872 N   0  0  0  0  0  0  0  0  0  0  0  0
  -89.1427   32.1655   -3.1762 C   0  0  0  0  0  0  0  0  0  0  0  0
  -91.0381   32.2745   -4.7623 C   0  0  0  0  0  0  0  0  0  0  0  0
  -92.1289   33.2748   -4.9582 C   0  0  0  0  0  0  0  0  0  0  0  0
  -93.5094   32.7298   -4.6733 C   0  0  0  0  0  0  0  0  0  0  0  0
  -93.6034   32.0568   -3.4167 N   0  0  0  0  0  0  0  0  0  0  0  0
  -92.4602   31.2817   -3.0557 C   0  0  0  0  0  0  0  0  0  0  0  0
  -91.5495   30.9623   -4.2096 C   0  0  0  0  0  0  0  0  0  0  0  0
  -93.9092   32.6421   -2.6184 H   0  0  0  0  0  0  0  0  0  0  0  0
 25 26  1  0  0  0
 26 17  1  0  0  0
 17 18  2  0  0  0
 18 19  1  0  0  0
 19 27  1  0  0  0
 27 28  1  0  0  0
 19 20  2  0  0  0
 20 21  1  0  0  0
 20 22  1  0  0  0
 22 23  2  0  0  0
 23 24  1  0  0  0
 22 10  1  0  0  0
 10 11  1  0  0  0
 11 12  2  0  0  0
 12 13  1  0  0  0
 13 14  2  0  0  0
 14 15  1  0  0  0
 15 16  2  0  0  0
 12  1  1  0  0  0
  1  2  2  0  0  0
  2  3  1  0  0  0
  3  4  2  0  0  0
  4  5  1  0  0  0
  5  6  2  0  0  0
  6  7  1  0  0  0
  3 29  1  0  0  0
 29 30  1  0  0  0
 30 31  2  0  0  0
 31 32  1  0  0  0
 32 33  1  0  0  0
 32 34  1  0  0  0
 34 35  1  0  0  0
 35 36  1  0  0  0
 36 37  1  0  0  0
 37 38  1  0  0  0
 38 39  1  0  0  0
 23 17  1  0  0  0
 15 10  1  0  0  0
  6  1  1  0  0  0
 33 29  2  0  0  0
 39 34  1  0  0  0
  7  8  1  0  0  0
  7  9  1  0  0  0
 37 40  1  0  0  0
M  END
> <minimizedAffinity>
-8.58763

> <CNNscore>
0.0475973524

> <CNNaffinity>
7.0384736061

> <CNN_VS>
0.3350127041

> <CNNaffinity_variance>
0.4311438501

$$$$
[H]c1nc(N([H])[H])c(-c2nn(-c3c(Cl)c(OC([H])([H])[H])c([H])c(OC([H])([H])[H])c3Cl)c(=O)c([H])c2[H])nc1-c1c([H])nn(C2([H])C([H])([H])C([H])([H])N([H])C([H])([H])C2([H])[H])c1[H]


 40 44  0  0  0  0  0  0  0  0999 V2000
  -89.3468   31.7583   -2.1024 C   0  0  0  0  0  0  0  0  0  0  0  0
  -88.1704   31.6934   -1.4157 N   0  0  0  0  0  0  0  0  0  0  0  0
  -87.2437   32.6417   -1.5168 C   0  0  0  0  0  0  0  0  0  0  0  0
  -87.4850   33.7097   -2.3360 C   0  0  0  0  0  0  0  0  0  0  0  0
  -88.6336   33.8336   -3.0457 N   0  0  0  0  0  0  0  0  0  0  0  0
  -89.5432   32.8474   -2.9104 C   0  0  0  0  0  0  0  0  0  0  0  0
  -90.7405   32.9542   -3.6375 N   0  0  0  0  0  0  0  0  0  0  0  0
  -90.7444   32.6014   -4.6199 H   0  0  0  0  0  0  0  0  0  0  0  0
  -91.5714   33.3702   -3.1927 H   0  0  0  0  0  0  0  0  0  0  0  0
  -91.0246   28.6435   -1.1879 N   0  0  0  0  0  0  0  0  0  0  0  0
  -90.1042   29.6040   -1.2980 N   0  0  0  0  0  0  0  0  0  0  0  0
  -90.3566   30.7268   -1.9922 C   0  0  0  0  0  0  0  0  0  0  0  0
  -91.5863   30.8668   -2.5888 C   0  0  0  0  0  0  0  0  0  0  0  0
  -92.5538   29.8806   -2.4850 C   0  0  0  0  0  0  0  0  0  0  0  0
  -92.2321   28.7525   -1.7588 C   0  0  0  0  0  0  0  0  0  0  0  0
  -93.0734   27.8306   -1.6350 O   0  0  0  0  0  0  0  0  0  0  0  0
  -90.3520   26.4026    1.7005 C   0  0  0  0  0  0  0  0  0  0  0  0
  -89.9579   25.2635    1.0439 C   0  0  0  0  0  0  0  0  0  0  0  0
  -89.9077   25.2092   -0.3455 C   0  0  0  0  0  0  0  0  0  0  0  0
  -90.2622   26.3244   -1.0535 C   0  0  0  0  0  0  0  0  0  0  0  0
  -90.2013   26.2621   -2.8015 Cl  0  0  0  0  0  0  0  0  0  0  0  0
  -90.6624   27.4850   -0.4332 C   0  0  0  0  0  0  0  0  0  0  0  0
  -90.7012   27.5040    0.9579 C   0  0  0  0  0  0  0  0  0  0  0  0
  -91.2044   28.9661    1.7645 Cl  0  0  0  0  0  0  0  0  0  0  0  0
  -90.7763   25.4258    3.9457 C   0  0  0  0  0  0  0  0  0  0  0  0
  -90.3929   26.4277    3.0683 O   0  0  0  0  0  0  0  0  0  0  0  0
  -89.5082   24.0531   -0.9900 O   0  0  0  0  0  0  0  0  0  0  0  0
  -90.4081   22.9703   -1.0557 C   0  0  0  0  0  0  0  0  0  0  0  0
  -86.0045   32.5465   -0.7716 C   0  0  0  0  0  0  0  0  0  0  0  0
  -84.8136   33.1919   -1.0975 C   0  0  0  0  0  0  0  0  0  0  0  0
  -83.9043   32.8519   -0.1662 N   0  0  0  0  0  0  0  0  0  0  0  0
  -84.4587   32.0279    0.7275 N   0  0  0  0  0  0  0  0  0  0  0  0
  -85.7313   31.8313    0.3771 C   0  0  0  0  0  0  0  0  0  0  0  0
  -83.8136   31.4342    1.8888 C   0  0  0  0  0  0  0  0  0  0  0  0
  -82.8351   30.4132    1.4106 C   0  0  0  0  0  0  0  0  0  0  0  0
  -83.0007   29.0614    2.0656 C   0  0  0  0  0  0  0  0  0  0  0  0
  -84.3465   28.5827    2.0419 N   0  0  0  0  0  0  0  0  0  0  0  0
  -85.3494   29.5795    2.2380 C   0  0  0  0  0  0  0  0  0  0  0  0
  -84.8326   30.8549    2.8456 C   0  0  0  0  0  0  0  0  0  0  0  0
  -84.5913   27.9781    1.2370 H   0  0  0  0  0  0  0  0  0  0  0  0
 25 26  1  0  0  0
 26 17  1  0  0  0
 17 18  2  0  0  0
 18 19  1  0  0  0
 19 27  1  0  0  0
 27 28  1  0  0  0
 19 20  2  0  0  0
 20 21  1  0  0  0
 20 22  1  0  0  0
 22 23  2  0  0  0
 23 24  1  0  0  0
 22 10  1  0  0  0
 10 11  1  0  0  0
 11 12  2  0  0  0
 12 13  1  0  0  0
 13 14  2  0  0  0
 14 15  1  0  0  0
 15 16  2  0  0  0
 12  1  1  0  0  0
  1  2  2  0  0  0
  2  3  1  0  0  0
  3  4  2  0  0  0
  4  5  1  0  0  0
  5  6  2  0  0  0
  6  7  1  0  0  0
  3 29  1  0  0  0
 29 30  1  0  0  0
 30 31  2  0  0  0
 31 32  1  0  0  0
 32 33  1  0  0  0
 32 34  1  0  0  0
 34 35  1  0  0  0
 35 36  1  0  0  0
 36 37  1  0  0  0
 37 38  1  0  0  0
 38 39  1  0  0  0
 23 17  1  0  0  0
 15 10  1  0  0  0
  6  1  1  0  0  0
 33 29  2  0  0  0
 39 34  1  0  0  0
  7  8  1  0  0  0
  7  9  1  0  0  0
 37 40  1  0  0  0
M  END
> <minimizedAffinity>
-9.52809

> <CNNscore>
0.0357899368

> <CNNaffinity>
7.1511368752

> <CNN_VS>
0.2559387386

> <CNNaffinity_variance>
0.1829395443

$$$$
[H]c1nc(N([H])[H])c(-c2nn(-c3c(Cl)c(OC([H])([H])[H])c([H])c(OC([H])([H])[H])c3Cl)c(=O)c([H])c2[H])nc1-c1c([H])nn(C2([H])C([H])([H])C([H])([H])N([H])C([H])([H])C2([H])[H])c1[H]


 40 44  0  0  0  0  0  0  0  0999 V2000
  -88.7366   31.3343   -1.4917 C   0  0  0  0  0  0  0  0  0  0  0  0
  -88.8186   32.4719   -2.2393 N   0  0  0  0  0  0  0  0  0  0  0  0
  -87.8500   33.3830   -2.2423 C   0  0  0  0  0  0  0  0  0  0  0  0
  -86.7427   33.1653   -1.4701 C   0  0  0  0  0  0  0  0  0  0  0  0
  -86.6000   32.0555   -0.7044 N   0  0  0  0  0  0  0  0  0  0  0  0
  -87.6081   31.1605   -0.7343 C   0  0  0  0  0  0  0  0  0  0  0  0
  -87.4824   30.0034    0.0524 N   0  0  0  0  0  0  0  0  0  0  0  0
  -87.7802   30.0612    1.0512 H   0  0  0  0  0  0  0  0  0  0  0  0
  -87.1063   29.1407   -0.3667 H   0  0  0  0  0  0  0  0  0  0  0  0
  -90.6502   28.3234   -0.7006 N   0  0  0  0  0  0  0  0  0  0  0  0
  -89.6876   29.2481   -0.7139 N   0  0  0  0  0  0  0  0  0  0  0  0
  -89.7903   30.3416   -1.4886 C   0  0  0  0  0  0  0  0  0  0  0  0
  -90.9108   30.4893   -2.2698 C   0  0  0  0  0  0  0  0  0  0  0  0
  -91.9200   29.5400   -2.2686 C   0  0  0  0  0  0  0  0  0  0  0  0
  -91.7539   28.4408   -1.4516 C   0  0  0  0  0  0  0  0  0  0  0  0
  -92.6389   27.5529   -1.4146 O   0  0  0  0  0  0  0  0  0  0  0  0
  -90.4934   26.2148    2.3566 C   0  0  0  0  0  0  0  0  0  0  0  0
  -90.0589   25.0294    1.8179 C   0  0  0  0  0  0  0  0  0  0  0  0
  -89.8134   24.9004    0.4545 C   0  0  0  0  0  0  0  0  0  0  0  0
  -90.0151   25.9888   -0.3488 C   0  0  0  0  0  0  0  0  0  0  0  0
  -89.7084   25.8326   -2.0648 Cl  0  0  0  0  0  0  0  0  0  0  0  0
  -90.4495   27.1940    0.1521 C   0  0  0  0  0  0  0  0  0  0  0  0
  -90.6854   27.2875    1.5205 C   0  0  0  0  0  0  0  0  0  0  0  0
  -91.2352   28.8070    2.1764 Cl  0  0  0  0  0  0  0  0  0  0  0  0
  -89.8736   26.0326    4.7561 C   0  0  0  0  0  0  0  0  0  0  0  0
  -90.7277   26.3132    3.7014 O   0  0  0  0  0  0  0  0  0  0  0  0
  -89.3762   23.6984   -0.0705 O   0  0  0  0  0  0  0  0  0  0  0  0
  -90.1919   22.5587    0.0791 C   0  0  0  0  0  0  0  0  0  0  0  0
  -87.9644   34.5807   -3.0501 C   0  0  0  0  0  0  0  0  0  0  0  0
  -86.9354   35.1567   -3.7919 C   0  0  0  0  0  0  0  0  0  0  0  0
  -87.4389   36.2467   -4.3987 N   0  0  0  0  0  0  0  0  0  0  0  0
  -88.7283   36.3873   -4.0786 N   0  0  0  0  0  0  0  0  0  0  0  0
  -89.0648   35.3869   -3.2621 C   0  0  0  0  0  0  0  0  0  0  0  0
  -89.6321   37.4361   -4.5267 C   0  0  0  0  0  0  0  0  0  0  0  0
  -91.0108   37.0947   -4.0670 C   0  0  0  0  0  0  0  0  0  0  0  0
  -92.0423   37.1228   -5.1712 C   0  0  0  0  0  0  0  0  0  0  0  0
  -91.6521   36.3815   -6.3284 N   0  0  0  0  0  0  0  0  0  0  0  0
  -90.2676   36.4664   -6.6659 C   0  0  0  0  0  0  0  0  0  0  0  0
  -89.5527   37.6247   -6.0258 C   0  0  0  0  0  0  0  0  0  0  0  0
  -91.9704   35.3959   -6.3556 H   0  0  0  0  0  0  0  0  0  0  0  0
 25 26  1  0  0  0
 26 17  1  0  0  0
 17 18  2  0  0  0
 18 19  1  0  0  0
 19 27  1  0  0  0
 27 28  1  0  0  0
 19 20  2  0  0  0
 20 21  1  0  0  0
 20 22  1  0  0  0
 22 23  2  0  0  0
 23 24  1  0  0  0
 22 10  1  0  0  0
 10 11  1  0  0  0
 11 12  2  0  0  0
 12 13  1  0  0  0
 13 14  2  0  0  0
 14 15  1  0  0  0
 15 16  2  0  0  0
 12  1  1  0  0  0
  1  2  2  0  0  0
  2  3  1  0  0  0
  3  4  2  0  0  0
  4  5  1  0  0  0
  5  6  2  0  0  0
  6  7  1  0  0  0
  3 29  1  0  0  0
 29 30  1  0  0  0
 30 31  2  0  0  0
 31 32  1  0  0  0
 32 33  1  0  0  0
 32 34  1  0  0  0
 34 35  1  0  0  0
 35 36  1  0  0  0
 36 37  1  0  0  0
 37 38  1  0  0  0
 38 39  1  0  0  0
 23 17  1  0  0  0
 15 10  1  0  0  0
  6  1  1  0  0  0
 33 29  2  0  0  0
 39 34  1  0  0  0
  7  8  1  0  0  0
  7  9  1  0  0  0
 37 40  1  0  0  0
M  END
> <minimizedAffinity>
-7.37745

> <CNNscore>
0.0305739511

> <CNNaffinity>
6.1756625175

> <CNN_VS>
0.1888144016

> <CNNaffinity_variance>
0.4052756727

$$$$
[H]C1=C([H])C([H])(F)C([H])([H])C([H])=C1N([H])C(=O)C1(C(=O)N([H])c2c([H])c([H])c(Oc3c([H])c([H])nc4c([H])c(OC([H])([H])C([H])([H])C([H])([H])N5C([H])([H])C([H])([H])OC([H])([H])C5([H])[H])c(OC([H])([H])[H])c([H])c34)c(F)c2[H])C([H])([H])C1([H])[H]


 48 53  0  0  0  0  0  0  0  0999 V2000
  -86.2626   29.2384    1.0628 C   0  0  0  0  0  0  0  0  0  0  0  0
  -87.0128   29.0989   -0.0965 C   0  0  0  0  0  0  0  0  0  0  0  0
  -87.4889   27.9134   -0.5719 C   0  0  0  0  0  0  0  0  0  0  0  0
  -87.2164   26.7391    0.1390 C   0  0  0  0  0  0  0  0  0  0  0  0
  -86.4804   26.8320    1.2889 C   0  0  0  0  0  0  0  0  0  0  0  0
  -86.0032   28.0681    1.7547 C   0  0  0  0  0  0  0  0  0  0  0  0
  -85.3052   28.0811    2.9140 F   0  0  0  0  0  0  0  0  0  0  0  0
  -87.7617   25.4995   -0.3507 N   0  0  0  0  0  0  0  0  0  0  0  0
  -89.0379   25.0754   -0.0593 C   0  0  0  0  0  0  0  0  0  0  0  0
  -89.7277   25.8465    0.7239 O   0  0  0  0  0  0  0  0  0  0  0  0
  -87.0982   24.9494   -0.9174 H   0  0  0  0  0  0  0  0  0  0  0  0
  -89.7868   23.8677   -0.4832 C   0  0  0  0  0  0  0  0  0  0  0  0
  -89.9536   23.7253   -1.9866 C   0  0  0  0  0  0  0  0  0  0  0  0
  -91.1164   24.2243   -1.2584 C   0  0  0  0  0  0  0  0  0  0  0  0
  -89.9063   22.6471    0.3149 C   0  0  0  0  0  0  0  0  0  0  0  0
  -89.3579   21.5971   -0.2553 O   0  0  0  0  0  0  0  0  0  0  0  0
  -90.4729   22.3652    1.5520 N   0  0  0  0  0  0  0  0  0  0  0  0
  -90.9256   23.0673    2.1599 H   0  0  0  0  0  0  0  0  0  0  0  0
  -90.4317   21.0101    2.1025 C   0  0  0  0  0  0  0  0  0  0  0  0
  -89.5785   20.7813    3.0749 C   0  0  0  0  0  0  0  0  0  0  0  0
  -89.3809   19.5076    3.7604 C   0  0  0  0  0  0  0  0  0  0  0  0
  -90.2005   18.3833    3.2592 C   0  0  0  0  0  0  0  0  0  0  0  0
  -90.9903   17.8598    4.3146 F   0  0  0  0  0  0  0  0  0  0  0  0
  -91.1179   18.7436    2.1765 C   0  0  0  0  0  0  0  0  0  0  0  0
  -91.2435   19.9357    1.6296 C   0  0  0  0  0  0  0  0  0  0  0  0
  -85.8132   30.4679    1.4918 O   0  0  0  0  0  0  0  0  0  0  0  0
  -87.8456   32.8579   -1.1399 C   0  0  0  0  0  0  0  0  0  0  0  0
  -87.1823   32.0522   -0.2557 C   0  0  0  0  0  0  0  0  0  0  0  0
  -85.8059   32.1056   -0.2100 C   0  0  0  0  0  0  0  0  0  0  0  0
  -85.0780   31.2909    0.6840 C   0  0  0  0  0  0  0  0  0  0  0  0
  -83.7048   31.3560    0.7102 C   0  0  0  0  0  0  0  0  0  0  0  0
  -83.0186   32.2098   -0.1251 C   0  0  0  0  0  0  0  0  0  0  0  0
  -83.7135   32.9839   -0.9734 N   0  0  0  0  0  0  0  0  0  0  0  0
  -85.0738   32.9364   -1.0183 C   0  0  0  0  0  0  0  0  0  0  0  0
  -85.7513   33.7509   -1.9129 C   0  0  0  0  0  0  0  0  0  0  0  0
  -87.1235   33.7209   -1.9808 C   0  0  0  0  0  0  0  0  0  0  0  0
  -89.9134   31.7061   -1.6108 C   0  0  0  0  0  0  0  0  0  0  0  0
  -89.2207   32.8853   -1.2706 O   0  0  0  0  0  0  0  0  0  0  0  0
  -87.7963   34.5194   -2.8468 O   0  0  0  0  0  0  0  0  0  0  0  0
  -87.6235   34.5418   -4.2170 C   0  0  0  0  0  0  0  0  0  0  0  0
  -86.9692   35.8287   -4.6997 C   0  0  0  0  0  0  0  0  0  0  0  0
  -87.5641   36.1853   -6.0687 C   0  0  0  0  0  0  0  0  0  0  0  0
  -86.6904   37.1441   -6.6975 N   0  0  0  0  0  0  0  0  0  0  0  0
  -87.3977   37.8082   -7.8171 C   0  0  0  0  0  0  0  0  0  0  0  0
  -86.4145   38.8777   -8.3020 C   0  0  0  0  0  0  0  0  0  0  0  0
  -85.1155   38.6421   -7.8519 O   0  0  0  0  0  0  0  0  0  0  0  0
  -85.0091   38.7902   -6.4548 C   0  0  0  0  0  0  0  0  0  0  0  0
  -86.2756   38.2219   -5.8012 C   0  0  0  0  0  0  0  0  0  0  0  0
 37 38  1  0  0  0
 38 27  1  0  0  0
 27 28  2  0  0  0
 28 29  1  0  0  0
 29 30  2  0  0  0
 30 26  1  0  0  0
 26  1  1  0  0  0
  1  2  2  0  0  0
  2  3  1  0  0  0
  3  4  2  0  0  0
  4  8  1  0  0  0
  8  9  1  0  0  0
  9 10  2  0  0  0
  9 12  1  0  0  0
 12 13  1  0  0  0
 13 14  1  0  0  0
 12 15  1  0  0  0
 15 16  2  0  0  0
 15 17  1  0  0  0
 17 19  1  0  0  0
 19 20  2  0  0  0
 20 21  1  0  0  0
 21 22  1  0  0  0
 22 23  1  0  0  0
 22 24  1  0  0  0
 24 25  2  0  0  0
  4  5  1  0  0  0
  5  6  2  0  0  0
  6  7  1  0  0  0
 30 31  1  0  0  0
 31 32  2  0  0  0
 32 33  1  0  0  0
 33 34  2  0  0  0
 34 35  1  0  0  0
 35 36  2  0  0  0
 36 39  1  0  0  0
 39 40  1  0  0  0
 40 41  1  0  0  0
 41 42  1  0  0  0
 42 43  1  0  0  0
 43 44  1  0  0  0
 44 45  1  0  0  0
 45 46  1  0  0  0
 46 47  1  0  0  0
 47 48  1  0  0  0
 36 27  1  0  0  0
 48 43  1  0  0  0
 34 29  1  0  0  0
  6  1  1  0  0  0
 14 12  1  0  0  0
 25 19  1  0  0  0
  8 11  1  0  0  0
 17 18  1  0  0  0
M  END
> <minimizedAffinity>
-9.89578

> <CNNscore>
0.6749996543

> <CNNaffinity>
7.4740819931

> <CNN_VS>
5.0450029373

> <CNNaffinity_variance>
0.0786887258

$$$$
[H]C1=C([H])C([H])(F)C([H])([H])C([H])=C1N([H])C(=O)C1(C(=O)N([H])c2c([H])c([H])c(Oc3c([H])c([H])nc4c([H])c(OC([H])([H])C([H])([H])C([H])([H])N5C([H])([H])C([H])([H])OC([H])([H])C5([H])[H])c(OC([H])([H])[H])c([H])c34)c(F)c2[H])C([H])([H])C1([H])[H]


 48 53  0  0  0  0  0  0  0  0999 V2000
  -86.4117   28.7980    1.2281 C   0  0  0  0  0  0  0  0  0  0  0  0
  -87.5018   28.8490    0.3705 C   0  0  0  0  0  0  0  0  0  0  0  0
  -88.0891   27.7589   -0.1998 C   0  0  0  0  0  0  0  0  0  0  0  0
  -87.5768   26.4874    0.0819 C   0  0  0  0  0  0  0  0  0  0  0  0
  -86.5025   26.3920    0.9242 C   0  0  0  0  0  0  0  0  0  0  0  0
  -85.9182   27.5333    1.4974 C   0  0  0  0  0  0  0  0  0  0  0  0
  -84.8753   27.3546    2.3412 F   0  0  0  0  0  0  0  0  0  0  0  0
  -88.2332   25.3416   -0.4925 N   0  0  0  0  0  0  0  0  0  0  0  0
  -89.2836   24.6956    0.1183 C   0  0  0  0  0  0  0  0  0  0  0  0
  -89.6375   25.1576    1.2781 O   0  0  0  0  0  0  0  0  0  0  0  0
  -87.8260   25.0364   -1.3896 H   0  0  0  0  0  0  0  0  0  0  0  0
  -90.1029   23.5378   -0.3142 C   0  0  0  0  0  0  0  0  0  0  0  0
  -90.3175   23.4436   -1.8154 C   0  0  0  0  0  0  0  0  0  0  0  0
  -91.4338   23.9795   -1.0419 C   0  0  0  0  0  0  0  0  0  0  0  0
  -90.2613   22.3038    0.4561 C   0  0  0  0  0  0  0  0  0  0  0  0
  -89.7045   21.2589   -0.1155 O   0  0  0  0  0  0  0  0  0  0  0  0
  -90.8718   22.0047    1.6679 N   0  0  0  0  0  0  0  0  0  0  0  0
  -91.3376   22.7001    2.2736 H   0  0  0  0  0  0  0  0  0  0  0  0
  -90.8625   20.6392    2.1936 C   0  0  0  0  0  0  0  0  0  0  0  0
  -89.9186   20.3320    3.0540 C   0  0  0  0  0  0  0  0  0  0  0  0
  -89.7326   19.0341    3.6958 C   0  0  0  0  0  0  0  0  0  0  0  0
  -90.6841   17.9799    3.2833 C   0  0  0  0  0  0  0  0  0  0  0  0
  -91.3785   17.4913    4.4195 F   0  0  0  0  0  0  0  0  0  0  0  0
  -91.6954   18.4249    2.3226 C   0  0  0  0  0  0  0  0  0  0  0  0
  -91.7995   19.6336    1.8087 C   0  0  0  0  0  0  0  0  0  0  0  0
  -85.8656   29.9384    1.7749 O   0  0  0  0  0  0  0  0  0  0  0  0
  -87.2207   32.8140   -0.8065 C   0  0  0  0  0  0  0  0  0  0  0  0
  -86.7851   31.8485    0.0588 C   0  0  0  0  0  0  0  0  0  0  0  0
  -85.4291   31.6698    0.2289 C   0  0  0  0  0  0  0  0  0  0  0  0
  -84.9325   30.6840    1.1089 C   0  0  0  0  0  0  0  0  0  0  0  0
  -83.5758   30.5188    1.2603 C   0  0  0  0  0  0  0  0  0  0  0  0
  -82.6831   31.3047    0.5654 C   0  0  0  0  0  0  0  0  0  0  0  0
  -83.1583   32.2419   -0.2698 N   0  0  0  0  0  0  0  0  0  0  0  0
  -84.4977   32.4236   -0.4371 C   0  0  0  0  0  0  0  0  0  0  0  0
  -84.9448   33.4009   -1.3133 C   0  0  0  0  0  0  0  0  0  0  0  0
  -86.2906   33.6035   -1.5030 C   0  0  0  0  0  0  0  0  0  0  0  0
  -89.3252   32.1524   -1.7850 C   0  0  0  0  0  0  0  0  0  0  0  0
  -88.5541   33.0780   -1.0538 O   0  0  0  0  0  0  0  0  0  0  0  0
  -86.7386   34.5623   -2.3517 O   0  0  0  0  0  0  0  0  0  0  0  0
  -86.9713   34.3927   -3.7026 C   0  0  0  0  0  0  0  0  0  0  0  0
  -87.7224   35.5666   -4.3152 C   0  0  0  0  0  0  0  0  0  0  0  0
  -88.4971   35.0554   -5.5373 C   0  0  0  0  0  0  0  0  0  0  0  0
  -89.8953   35.3363   -5.3273 N   0  0  0  0  0  0  0  0  0  0  0  0
  -90.6981   34.1231   -5.6078 C   0  0  0  0  0  0  0  0  0  0  0  0
  -92.1264   34.5194   -5.2225 C   0  0  0  0  0  0  0  0  0  0  0  0
  -92.2822   35.9022   -5.1277 O   0  0  0  0  0  0  0  0  0  0  0  0
  -91.5519   36.4401   -4.0495 C   0  0  0  0  0  0  0  0  0  0  0  0
  -90.2094   35.7041   -3.9478 C   0  0  0  0  0  0  0  0  0  0  0  0
 37 38  1  0  0  0
 38 27  1  0  0  0
 27 28  2  0  0  0
 28 29  1  0  0  0
 29 30  2  0  0  0
 30 26  1  0  0  0
 26  1  1  0  0  0
  1  2  2  0  0  0
  2  3  1  0  0  0
  3  4  2  0  0  0
  4  8  1  0  0  0
  8  9  1  0  0  0
  9 10  2  0  0  0
  9 12  1  0  0  0
 12 13  1  0  0  0
 13 14  1  0  0  0
 12 15  1  0  0  0
 15 16  2  0  0  0
 15 17  1  0  0  0
 17 19  1  0  0  0
 19 20  2  0  0  0
 20 21  1  0  0  0
 21 22  1  0  0  0
 22 23  1  0  0  0
 22 24  1  0  0  0
 24 25  2  0  0  0
  4  5  1  0  0  0
  5  6  2  0  0  0
  6  7  1  0  0  0
 30 31  1  0  0  0
 31 32  2  0  0  0
 32 33  1  0  0  0
 33 34  2  0  0  0
 34 35  1  0  0  0
 35 36  2  0  0  0
 36 39  1  0  0  0
 39 40  1  0  0  0
 40 41  1  0  0  0
 41 42  1  0  0  0
 42 43  1  0  0  0
 43 44  1  0  0  0
 44 45  1  0  0  0
 45 46  1  0  0  0
 46 47  1  0  0  0
 47 48  1  0  0  0
 36 27  1  0  0  0
 48 43  1  0  0  0
 34 29  1  0  0  0
  6  1  1  0  0  0
 14 12  1  0  0  0
 25 19  1  0  0  0
  8 11  1  0  0  0
 17 18  1  0  0  0
M  END
> <minimizedAffinity>
-9.03080

> <CNNscore>
0.5249000192

> <CNNaffinity>
7.3581838608

> <CNN_VS>
3.8623108864

> <CNNaffinity_variance>
0.1535468996

$$$$
[H]C1=C([H])C([H])(F)C([H])([H])C([H])=C1N([H])C(=O)C1(C(=O)N([H])c2c([H])c([H])c(Oc3c([H])c([H])nc4c([H])c(OC([H])([H])C([H])([H])C([H])([H])N5C([H])([H])C([H])([H])OC([H])([H])C5([H])[H])c(OC([H])([H])[H])c([H])c34)c(F)c2[H])C([H])([H])C1([H])[H]


 48 53  0  0  0  0  0  0  0  0999 V2000
  -86.1106   29.2573    1.1494 C   0  0  0  0  0  0  0  0  0  0  0  0
  -86.3493   28.9922   -0.1919 C   0  0  0  0  0  0  0  0  0  0  0  0
  -86.8393   27.8143   -0.6723 C   0  0  0  0  0  0  0  0  0  0  0  0
  -87.1303   26.7832    0.2281 C   0  0  0  0  0  0  0  0  0  0  0  0
  -86.9105   27.0033    1.5606 C   0  0  0  0  0  0  0  0  0  0  0  0
  -86.4048   28.2279    2.0266 C   0  0  0  0  0  0  0  0  0  0  0  0
  -86.2397   28.3779    3.3615 F   0  0  0  0  0  0  0  0  0  0  0  0
  -87.6880   25.5600   -0.2881 N   0  0  0  0  0  0  0  0  0  0  0  0
  -88.9898   25.1758   -0.0615 C   0  0  0  0  0  0  0  0  0  0  0  0
  -89.6944   25.9693    0.6854 O   0  0  0  0  0  0  0  0  0  0  0  0
  -87.0140   24.9886   -0.8201 H   0  0  0  0  0  0  0  0  0  0  0  0
  -89.7531   23.9909   -0.5222 C   0  0  0  0  0  0  0  0  0  0  0  0
  -89.9226   23.8977   -2.0292 C   0  0  0  0  0  0  0  0  0  0  0  0
  -91.0790   24.3871   -1.2844 C   0  0  0  0  0  0  0  0  0  0  0  0
  -89.8863   22.7473    0.2374 C   0  0  0  0  0  0  0  0  0  0  0  0
  -89.0821   21.7946   -0.1795 O   0  0  0  0  0  0  0  0  0  0  0  0
  -90.6805   22.3630    1.3109 N   0  0  0  0  0  0  0  0  0  0  0  0
  -91.3537   22.9833    1.7899 H   0  0  0  0  0  0  0  0  0  0  0  0
  -90.5831   21.0137    1.8684 C   0  0  0  0  0  0  0  0  0  0  0  0
  -89.7791   20.8427    2.8932 C   0  0  0  0  0  0  0  0  0  0  0  0
  -89.5398   19.5851    3.5949 C   0  0  0  0  0  0  0  0  0  0  0  0
  -90.2492   18.4083    3.0480 C   0  0  0  0  0  0  0  0  0  0  0  0
  -91.0667   17.8327    4.0542 F   0  0  0  0  0  0  0  0  0  0  0  0
  -91.1190   18.7062    1.9086 C   0  0  0  0  0  0  0  0  0  0  0  0
  -91.2898   19.8872    1.3501 C   0  0  0  0  0  0  0  0  0  0  0  0
  -85.6164   30.4720    1.5715 O   0  0  0  0  0  0  0  0  0  0  0  0
  -87.5989   32.8758   -1.0856 C   0  0  0  0  0  0  0  0  0  0  0  0
  -86.9525   32.0659   -0.1929 C   0  0  0  0  0  0  0  0  0  0  0  0
  -85.5752   32.0900   -0.1486 C   0  0  0  0  0  0  0  0  0  0  0  0
  -84.8643   31.2698    0.7540 C   0  0  0  0  0  0  0  0  0  0  0  0
  -83.4900   31.3054    0.7786 C   0  0  0  0  0  0  0  0  0  0  0  0
  -82.7862   32.1347   -0.0666 C   0  0  0  0  0  0  0  0  0  0  0  0
  -83.4649   32.9142   -0.9231 N   0  0  0  0  0  0  0  0  0  0  0  0
  -84.8260   32.8956   -0.9666 C   0  0  0  0  0  0  0  0  0  0  0  0
  -85.4865   33.7145   -1.8699 C   0  0  0  0  0  0  0  0  0  0  0  0
  -86.8590   33.7135   -1.9366 C   0  0  0  0  0  0  0  0  0  0  0  0
  -89.7841   32.0936   -0.4244 C   0  0  0  0  0  0  0  0  0  0  0  0
  -88.9732   32.9315   -1.2158 O   0  0  0  0  0  0  0  0  0  0  0  0
  -87.5151   34.5167   -2.8110 O   0  0  0  0  0  0  0  0  0  0  0  0
  -87.5535   34.3482   -4.1814 C   0  0  0  0  0  0  0  0  0  0  0  0
  -88.6752   33.4181   -4.6219 C   0  0  0  0  0  0  0  0  0  0  0  0
  -88.0794   32.0224   -4.8504 C   0  0  0  0  0  0  0  0  0  0  0  0
  -89.0609   31.0477   -4.4445 N   0  0  0  0  0  0  0  0  0  0  0  0
  -88.5444   30.2633   -3.2987 C   0  0  0  0  0  0  0  0  0  0  0  0
  -89.7210   29.3712   -2.8923 C   0  0  0  0  0  0  0  0  0  0  0  0
  -90.6871   29.2842   -3.8946 O   0  0  0  0  0  0  0  0  0  0  0  0
  -91.3401   30.5153   -4.1025 C   0  0  0  0  0  0  0  0  0  0  0  0
  -90.3105   31.6462   -3.9787 C   0  0  0  0  0  0  0  0  0  0  0  0
 37 38  1  0  0  0
 38 27  1  0  0  0
 27 28  2  0  0  0
 28 29  1  0  0  0
 29 30  2  0  0  0
 30 26  1  0  0  0
 26  1  1  0  0  0
  1  2  2  0  0  0
  2  3  1  0  0  0
  3  4  2  0  0  0
  4  8  1  0  0  0
  8  9  1  0  0  0
  9 10  2  0  0  0
  9 12  1  0  0  0
 12 13  1  0  0  0
 13 14  1  0  0  0
 12 15  1  0  0  0
 15 16  2  0  0  0
 15 17  1  0  0  0
 17 19  1  0  0  0
 19 20  2  0  0  0
 20 21  1  0  0  0
 21 22  1  0  0  0
 22 23  1  0  0  0
 22 24  1  0  0  0
 24 25  2  0  0  0
  4  5  1  0  0  0
  5  6  2  0  0  0
  6  7  1  0  0  0
 30 31  1  0  0  0
 31 32  2  0  0  0
 32 33  1  0  0  0
 33 34  2  0  0  0
 34 35  1  0  0  0
 35 36  2  0  0  0
 36 39  1  0  0  0
 39 40  1  0  0  0
 40 41  1  0  0  0
 41 42  1  0  0  0
 42 43  1  0  0  0
 43 44  1  0  0  0
 44 45  1  0  0  0
 45 46  1  0  0  0
 46 47  1  0  0  0
 47 48  1  0  0  0
 36 27  1  0  0  0
 48 43  1  0  0  0
 34 29  1  0  0  0
  6  1  1  0  0  0
 14 12  1  0  0  0
 25 19  1  0  0  0
  8 11  1  0  0  0
 17 18  1  0  0  0
M  END
> <minimizedAffinity>
-9.47326

> <CNNscore>
0.3454141617

> <CNNaffinity>
7.4098434448

> <CNN_VS>
2.5594649315

> <CNNaffinity_variance>
0.2424819916

$$$$
[H]C1=C([H])C([H])(F)C([H])([H])C([H])=C1N([H])C(=O)C1(C(=O)N([H])c2c([H])c([H])c(Oc3c([H])c([H])nc4c([H])c(OC([H])([H])C([H])([H])C([H])([H])N5C([H])([H])C([H])([H])OC([H])([H])C5([H])[H])c(OC([H])([H])[H])c([H])c34)c(F)c2[H])C([H])([H])C1([H])[H]


 48 53  0  0  0  0  0  0  0  0999 V2000
  -86.4617   28.7394    1.2850 C   0  0  0  0  0  0  0  0  0  0  0  0
  -87.5792   28.7548    0.4620 C   0  0  0  0  0  0  0  0  0  0  0  0
  -88.1808   27.6423   -0.0466 C   0  0  0  0  0  0  0  0  0  0  0  0
  -87.6550   26.3837    0.2668 C   0  0  0  0  0  0  0  0  0  0  0  0
  -86.5536   26.3233    1.0766 C   0  0  0  0  0  0  0  0  0  0  0  0
  -85.9551   27.4871    1.5863 C   0  0  0  0  0  0  0  0  0  0  0  0
  -84.8847   27.3435    2.4019 F   0  0  0  0  0  0  0  0  0  0  0  0
  -88.3256   25.2151   -0.2415 N   0  0  0  0  0  0  0  0  0  0  0  0
  -89.4377   24.6694    0.3577 C   0  0  0  0  0  0  0  0  0  0  0  0
  -89.8395   25.2508    1.4460 O   0  0  0  0  0  0  0  0  0  0  0  0
  -87.8794   24.8123   -1.0797 H   0  0  0  0  0  0  0  0  0  0  0  0
  -90.2797   23.5083   -0.0189 C   0  0  0  0  0  0  0  0  0  0  0  0
  -90.4286   22.4587    1.0696 C   0  0  0  0  0  0  0  0  0  0  0  0
  -89.4768   22.1479    0.0070 C   0  0  0  0  0  0  0  0  0  0  0  0
  -91.3114   23.5375   -1.0562 C   0  0  0  0  0  0  0  0  0  0  0  0
  -92.5152   23.7779   -0.5857 O   0  0  0  0  0  0  0  0  0  0  0  0
  -91.2857   23.3701   -2.4354 N   0  0  0  0  0  0  0  0  0  0  0  0
  -90.4284   23.2001   -2.9864 H   0  0  0  0  0  0  0  0  0  0  0  0
  -92.5155   23.4601   -3.2231 C   0  0  0  0  0  0  0  0  0  0  0  0
  -93.1878   22.3485   -3.4181 C   0  0  0  0  0  0  0  0  0  0  0  0
  -94.4332   22.2200   -4.1689 C   0  0  0  0  0  0  0  0  0  0  0  0
  -94.9312   23.4663   -4.7900 C   0  0  0  0  0  0  0  0  0  0  0  0
  -96.2377   23.7483   -4.3150 F   0  0  0  0  0  0  0  0  0  0  0  0
  -94.1108   24.6466   -4.5116 C   0  0  0  0  0  0  0  0  0  0  0  0
  -93.0028   24.6715   -3.7992 C   0  0  0  0  0  0  0  0  0  0  0  0
  -85.9023   29.9013    1.7696 O   0  0  0  0  0  0  0  0  0  0  0  0
  -87.2576   32.7921   -0.7946 C   0  0  0  0  0  0  0  0  0  0  0  0
  -86.8220   31.8221    0.0657 C   0  0  0  0  0  0  0  0  0  0  0  0
  -85.4673   31.5985    0.1857 C   0  0  0  0  0  0  0  0  0  0  0  0
  -84.9708   30.6063    1.0585 C   0  0  0  0  0  0  0  0  0  0  0  0
  -83.6157   30.3959    1.1597 C   0  0  0  0  0  0  0  0  0  0  0  0
  -82.7244   31.1423    0.4209 C   0  0  0  0  0  0  0  0  0  0  0  0
  -83.1994   32.0857   -0.4074 N   0  0  0  0  0  0  0  0  0  0  0  0
  -84.5373   32.3118   -0.5254 C   0  0  0  0  0  0  0  0  0  0  0  0
  -84.9845   33.2938   -1.3962 C   0  0  0  0  0  0  0  0  0  0  0  0
  -86.3289   33.5407   -1.5365 C   0  0  0  0  0  0  0  0  0  0  0  0
  -89.5874   32.2830   -0.4242 C   0  0  0  0  0  0  0  0  0  0  0  0
  -88.5898   33.0994   -0.9938 O   0  0  0  0  0  0  0  0  0  0  0  0
  -86.7765   34.5047   -2.3797 O   0  0  0  0  0  0  0  0  0  0  0  0
  -87.0125   34.3421   -3.7309 C   0  0  0  0  0  0  0  0  0  0  0  0
  -88.4971   34.3533   -4.0674 C   0  0  0  0  0  0  0  0  0  0  0  0
  -88.7911   33.1557   -4.9808 C   0  0  0  0  0  0  0  0  0  0  0  0
  -88.9205   31.9842   -4.1508 N   0  0  0  0  0  0  0  0  0  0  0  0
  -90.2842   31.4214   -4.2867 C   0  0  0  0  0  0  0  0  0  0  0  0
  -90.2408   30.1275   -3.4685 C   0  0  0  0  0  0  0  0  0  0  0  0
  -89.1567   30.0948   -2.5914 O   0  0  0  0  0  0  0  0  0  0  0  0
  -87.9283   30.0224   -3.2776 C   0  0  0  0  0  0  0  0  0  0  0  0
  -88.0109   30.9045   -4.5304 C   0  0  0  0  0  0  0  0  0  0  0  0
 37 38  1  0  0  0
 38 27  1  0  0  0
 27 28  2  0  0  0
 28 29  1  0  0  0
 29 30  2  0  0  0
 30 26  1  0  0  0
 26  1  1  0  0  0
  1  2  2  0  0  0
  2  3  1  0  0  0
  3  4  2  0  0  0
  4  8  1  0  0  0
  8  9  1  0  0  0
  9 10  2  0  0  0
  9 12  1  0  0  0
 12 13  1  0  0  0
 13 14  1  0  0  0
 12 15  1  0  0  0
 15 16  2  0  0  0
 15 17  1  0  0  0
 17 19  1  0  0  0
 19 20  2  0  0  0
 20 21  1  0  0  0
 21 22  1  0  0  0
 22 23  1  0  0  0
 22 24  1  0  0  0
 24 25  2  0  0  0
  4  5  1  0  0  0
  5  6  2  0  0  0
  6  7  1  0  0  0
 30 31  1  0  0  0
 31 32  2  0  0  0
 32 33  1  0  0  0
 33 34  2  0  0  0
 34 35  1  0  0  0
 35 36  2  0  0  0
 36 39  1  0  0  0
 39 40  1  0  0  0
 40 41  1  0  0  0
 41 42  1  0  0  0
 42 43  1  0  0  0
 43 44  1  0  0  0
 44 45  1  0  0  0
 45 46  1  0  0  0
 46 47  1  0  0  0
 47 48  1  0  0  0
 36 27  1  0  0  0
 48 43  1  0  0  0
 34 29  1  0  0  0
  6  1  1  0  0  0
 14 12  1  0  0  0
 25 19  1  0  0  0
  8 11  1  0  0  0
 17 18  1  0  0  0
M  END
> <minimizedAffinity>
-8.83943

> <CNNscore>
0.1489772201

> <CNNaffinity>
6.9845724106

> <CNN_VS>
1.0405421257

> <CNNaffinity_variance>
0.5000185966

$$$$
[H]C1=C([H])C([H])(F)C([H])([H])C([H])=C1N([H])C(=O)C1(C(=O)N([H])c2c([H])c([H])c(Oc3c([H])c([H])nc4c([H])c(OC([H])([H])C([H])([H])C([H])([H])N5C([H])([H])C([H])([H])OC([H])([H])C5([H])[H])c(OC([H])([H])[H])c([H])c34)c(F)c2[H])C([H])([H])C1([H])[H]


 48 53  0  0  0  0  0  0  0  0999 V2000
  -86.4131   28.9513    1.0627 C   0  0  0  0  0  0  0  0  0  0  0  0
  -86.3580   28.6857   -0.2985 C   0  0  0  0  0  0  0  0  0  0  0  0
  -87.0153   27.6626   -0.9143 C   0  0  0  0  0  0  0  0  0  0  0  0
  -87.8080   26.8044   -0.1436 C   0  0  0  0  0  0  0  0  0  0  0  0
  -87.8909   27.0315    1.2033 C   0  0  0  0  0  0  0  0  0  0  0  0
  -87.2022   28.0944    1.8102 C   0  0  0  0  0  0  0  0  0  0  0  0
  -87.3560   28.2694    3.1433 F   0  0  0  0  0  0  0  0  0  0  0  0
  -88.5312   25.7542   -0.8127 N   0  0  0  0  0  0  0  0  0  0  0  0
  -89.8305   25.8960   -1.2432 C   0  0  0  0  0  0  0  0  0  0  0  0
  -90.3953   27.0341   -0.9794 O   0  0  0  0  0  0  0  0  0  0  0  0
  -87.9935   24.8801   -0.9151 H   0  0  0  0  0  0  0  0  0  0  0  0
  -90.7270   24.9630   -1.9676 C   0  0  0  0  0  0  0  0  0  0  0  0
  -90.9058   23.6120   -1.2958 C   0  0  0  0  0  0  0  0  0  0  0  0
  -89.9833   23.6469   -2.4268 C   0  0  0  0  0  0  0  0  0  0  0  0
  -91.7708   25.3800   -2.9045 C   0  0  0  0  0  0  0  0  0  0  0  0
  -92.8817   24.6867   -2.7878 O   0  0  0  0  0  0  0  0  0  0  0  0
  -91.8370   26.3590   -3.8885 N   0  0  0  0  0  0  0  0  0  0  0  0
  -91.0726   27.0187   -4.1071 H   0  0  0  0  0  0  0  0  0  0  0  0
  -93.0526   26.5411   -4.6822 C   0  0  0  0  0  0  0  0  0  0  0  0
  -94.0118   27.2679   -4.1556 C   0  0  0  0  0  0  0  0  0  0  0  0
  -95.2969   27.5726   -4.7776 C   0  0  0  0  0  0  0  0  0  0  0  0
  -95.5236   26.9540   -6.1016 C   0  0  0  0  0  0  0  0  0  0  0  0
  -95.7787   27.9644   -7.0639 F   0  0  0  0  0  0  0  0  0  0  0  0
  -94.3944   26.1654   -6.5983 C   0  0  0  0  0  0  0  0  0  0  0  0
  -93.2545   25.9606   -5.9703 C   0  0  0  0  0  0  0  0  0  0  0  0
  -85.7264   30.0054    1.6240 O   0  0  0  0  0  0  0  0  0  0  0  0
  -87.2902   32.8701   -0.8492 C   0  0  0  0  0  0  0  0  0  0  0  0
  -86.7846   31.9080   -0.0189 C   0  0  0  0  0  0  0  0  0  0  0  0
  -85.4180   31.7468    0.0585 C   0  0  0  0  0  0  0  0  0  0  0  0
  -84.8502   30.7651    0.8991 C   0  0  0  0  0  0  0  0  0  0  0  0
  -83.4843   30.6174    0.9579 C   0  0  0  0  0  0  0  0  0  0  0  0
  -82.6510   31.4170    0.2072 C   0  0  0  0  0  0  0  0  0  0  0  0
  -83.1937   32.3503   -0.5905 N   0  0  0  0  0  0  0  0  0  0  0  0
  -84.5436   32.5147   -0.6663 C   0  0  0  0  0  0  0  0  0  0  0  0
  -85.0617   33.4885   -1.5065 C   0  0  0  0  0  0  0  0  0  0  0  0
  -86.4198   33.6737   -1.6041 C   0  0  0  0  0  0  0  0  0  0  0  0
  -89.5818   32.2295   -0.4461 C   0  0  0  0  0  0  0  0  0  0  0  0
  -88.6406   33.1172   -1.0048 O   0  0  0  0  0  0  0  0  0  0  0  0
  -86.9365   34.6290   -2.4170 O   0  0  0  0  0  0  0  0  0  0  0  0
  -87.1680   34.4901   -3.7716 C   0  0  0  0  0  0  0  0  0  0  0  0
  -88.6512   34.5124   -4.1135 C   0  0  0  0  0  0  0  0  0  0  0  0
  -88.9475   33.3273   -5.0422 C   0  0  0  0  0  0  0  0  0  0  0  0
  -88.9837   32.1307   -4.2391 N   0  0  0  0  0  0  0  0  0  0  0  0
  -90.3318   31.5204   -4.3090 C   0  0  0  0  0  0  0  0  0  0  0  0
  -90.1919   30.2084   -3.5314 C   0  0  0  0  0  0  0  0  0  0  0  0
  -89.0562   30.1942   -2.7219 O   0  0  0  0  0  0  0  0  0  0  0  0
  -87.8698   30.1861   -3.4819 C   0  0  0  0  0  0  0  0  0  0  0  0
  -88.0603   31.0964   -4.7023 C   0  0  0  0  0  0  0  0  0  0  0  0
 37 38  1  0  0  0
 38 27  1  0  0  0
 27 28  2  0  0  0
 28 29  1  0  0  0
 29 30  2  0  0  0
 30 26  1  0  0  0
 26  1  1  0  0  0
  1  2  2  0  0  0
  2  3  1  0  0  0
  3  4  2  0  0  0
  4  8  1  0  0  0
  8  9  1  0  0  0
  9 10  2  0  0  0
  9 12  1  0  0  0
 12 13  1  0  0  0
 13 14  1  0  0  0
 12 15  1  0  0  0
 15 16  2  0  0  0
 15 17  1  0  0  0
 17 19  1  0  0  0
 19 20  2  0  0  0
 20 21  1  0  0  0
 21 22  1  0  0  0
 22 23  1  0  0  0
 22 24  1  0  0  0
 24 25  2  0  0  0
  4  5  1  0  0  0
  5  6  2  0  0  0
  6  7  1  0  0  0
 30 31  1  0  0  0
 31 32  2  0  0  0
 32 33  1  0  0  0
 33 34  2  0  0  0
 34 35  1  0  0  0
 35 36  2  0  0  0
 36 39  1  0  0  0
 39 40  1  0  0  0
 40 41  1  0  0  0
 41 42  1  0  0  0
 42 43  1  0  0  0
 43 44  1  0  0  0
 44 45  1  0  0  0
 45 46  1  0  0  0
 46 47  1  0  0  0
 47 48  1  0  0  0
 36 27  1  0  0  0
 48 43  1  0  0  0
 34 29  1  0  0  0
  6  1  1  0  0  0
 14 12  1  0  0  0
 25 19  1  0  0  0
  8 11  1  0  0  0
 17 18  1  0  0  0
M  END
> <minimizedAffinity>
-8.58613

> <CNNscore>
0.1323188096

> <CNNaffinity>
6.8357744217

> <CNN_VS>
0.9045015574

> <CNNaffinity_variance>
0.9179178476

$$$$
[H]C1=C([H])C([H])(F)C([H])([H])C([H])=C1N([H])C(=O)C1(C(=O)N([H])c2c([H])c([H])c(Oc3c([H])c([H])nc4c([H])c(OC([H])([H])C([H])([H])C([H])([H])N5C([H])([H])C([H])([H])OC([H])([H])C5([H])[H])c(OC([H])([H])[H])c([H])c34)c(F)c2[H])C([H])([H])C1([H])[H]


 48 53  0  0  0  0  0  0  0  0999 V2000
  -87.7651   32.1678   -1.0470 C   0  0  0  0  0  0  0  0  0  0  0  0
  -88.4327   32.2886   -2.2578 C   0  0  0  0  0  0  0  0  0  0  0  0
  -88.0933   33.1662   -3.2441 C   0  0  0  0  0  0  0  0  0  0  0  0
  -86.9995   34.0170   -3.0481 C   0  0  0  0  0  0  0  0  0  0  0  0
  -86.3124   33.9299   -1.8679 C   0  0  0  0  0  0  0  0  0  0  0  0
  -86.6853   33.0153   -0.8695 C   0  0  0  0  0  0  0  0  0  0  0  0
  -85.9396   32.9709    0.2590 F   0  0  0  0  0  0  0  0  0  0  0  0
  -86.6254   34.9089   -4.1150 N   0  0  0  0  0  0  0  0  0  0  0  0
  -87.1901   36.1521   -4.2850 C   0  0  0  0  0  0  0  0  0  0  0  0
  -88.1211   36.4735   -3.4400 O   0  0  0  0  0  0  0  0  0  0  0  0
  -85.9149   34.5182   -4.7525 H   0  0  0  0  0  0  0  0  0  0  0  0
  -86.9266   37.2167   -5.2831 C   0  0  0  0  0  0  0  0  0  0  0  0
  -85.5484   37.8482   -5.1815 C   0  0  0  0  0  0  0  0  0  0  0  0
  -86.6488   38.6187   -4.6097 C   0  0  0  0  0  0  0  0  0  0  0  0
  -87.6149   37.3324   -6.5691 C   0  0  0  0  0  0  0  0  0  0  0  0
  -87.0013   36.7017   -7.5459 O   0  0  0  0  0  0  0  0  0  0  0  0
  -88.7842   37.9643   -6.9744 N   0  0  0  0  0  0  0  0  0  0  0  0
  -89.4139   38.4864   -6.3434 H   0  0  0  0  0  0  0  0  0  0  0  0
  -89.2264   37.8977   -8.3676 C   0  0  0  0  0  0  0  0  0  0  0  0
  -90.1959   37.0580   -8.6518 C   0  0  0  0  0  0  0  0  0  0  0  0
  -90.7824   36.8398   -9.9707 C   0  0  0  0  0  0  0  0  0  0  0  0
  -90.1761   37.6192  -11.0716 C   0  0  0  0  0  0  0  0  0  0  0  0
  -91.1696   38.4153  -11.6973 F   0  0  0  0  0  0  0  0  0  0  0  0
  -89.1058   38.5246  -10.6492 C   0  0  0  0  0  0  0  0  0  0  0  0
  -88.6525   38.6712   -9.4209 C   0  0  0  0  0  0  0  0  0  0  0  0
  -88.1570   31.2567   -0.0909 O   0  0  0  0  0  0  0  0  0  0  0  0
  -90.1180   27.9439   -1.4866 C   0  0  0  0  0  0  0  0  0  0  0  0
  -89.4773   29.0605   -1.0249 C   0  0  0  0  0  0  0  0  0  0  0  0
  -88.2354   28.9226   -0.4431 C   0  0  0  0  0  0  0  0  0  0  0  0
  -87.5373   30.0458    0.0506 C   0  0  0  0  0  0  0  0  0  0  0  0
  -86.3015   29.8857    0.6320 C   0  0  0  0  0  0  0  0  0  0  0  0
  -85.7248   28.6396    0.7416 C   0  0  0  0  0  0  0  0  0  0  0  0
  -86.3906   27.5735    0.2704 N   0  0  0  0  0  0  0  0  0  0  0  0
  -87.6161   27.7070   -0.3086 C   0  0  0  0  0  0  0  0  0  0  0  0
  -88.2703   26.5782   -0.7783 C   0  0  0  0  0  0  0  0  0  0  0  0
  -89.5088   26.6840   -1.3641 C   0  0  0  0  0  0  0  0  0  0  0  0
  -91.5544   28.6992   -3.2728 C   0  0  0  0  0  0  0  0  0  0  0  0
  -91.3633   27.9657   -2.0848 O   0  0  0  0  0  0  0  0  0  0  0  0
  -90.1538   25.5871   -1.8342 O   0  0  0  0  0  0  0  0  0  0  0  0
  -90.8261   24.6597   -1.0623 C   0  0  0  0  0  0  0  0  0  0  0  0
  -92.0112   24.0443   -1.7932 C   0  0  0  0  0  0  0  0  0  0  0  0
  -93.2214   24.9698   -1.6095 C   0  0  0  0  0  0  0  0  0  0  0  0
  -93.9925   24.9411   -2.8272 N   0  0  0  0  0  0  0  0  0  0  0  0
  -93.1323   25.3141   -3.9743 C   0  0  0  0  0  0  0  0  0  0  0  0
  -94.0308   25.1160   -5.1986 C   0  0  0  0  0  0  0  0  0  0  0  0
  -95.3813   25.0503   -4.8561 O   0  0  0  0  0  0  0  0  0  0  0  0
  -95.6783   23.8912   -4.1121 C   0  0  0  0  0  0  0  0  0  0  0  0
  -94.5186   23.6150   -3.1461 C   0  0  0  0  0  0  0  0  0  0  0  0
 37 38  1  0  0  0
 38 27  1  0  0  0
 27 28  2  0  0  0
 28 29  1  0  0  0
 29 30  2  0  0  0
 30 26  1  0  0  0
 26  1  1  0  0  0
  1  2  2  0  0  0
  2  3  1  0  0  0
  3  4  2  0  0  0
  4  8  1  0  0  0
  8  9  1  0  0  0
  9 10  2  0  0  0
  9 12  1  0  0  0
 12 13  1  0  0  0
 13 14  1  0  0  0
 12 15  1  0  0  0
 15 16  2  0  0  0
 15 17  1  0  0  0
 17 19  1  0  0  0
 19 20  2  0  0  0
 20 21  1  0  0  0
 21 22  1  0  0  0
 22 23  1  0  0  0
 22 24  1  0  0  0
 24 25  2  0  0  0
  4  5  1  0  0  0
  5  6  2  0  0  0
  6  7  1  0  0  0
 30 31  1  0  0  0
 31 32  2  0  0  0
 32 33  1  0  0  0
 33 34  2  0  0  0
 34 35  1  0  0  0
 35 36  2  0  0  0
 36 39  1  0  0  0
 39 40  1  0  0  0
 40 41  1  0  0  0
 41 42  1  0  0  0
 42 43  1  0  0  0
 43 44  1  0  0  0
 44 45  1  0  0  0
 45 46  1  0  0  0
 46 47  1  0  0  0
 47 48  1  0  0  0
 36 27  1  0  0  0
 48 43  1  0  0  0
 34 29  1  0  0  0
  6  1  1  0  0  0
 14 12  1  0  0  0
 25 19  1  0  0  0
  8 11  1  0  0  0
 17 18  1  0  0  0
M  END
> <minimizedAffinity>
-7.17846

> <CNNscore>
0.0851320773

> <CNNaffinity>
6.2880601883

> <CNN_VS>
0.5353156328

> <CNNaffinity_variance>
0.2625687420

$$$$
[H]C1=C([H])C([H])(F)C([H])([H])C([H])=C1N([H])C(=O)C1(C(=O)N([H])c2c([H])c([H])c(Oc3c([H])c([H])nc4c([H])c(OC([H])([H])C([H])([H])C([H])([H])N5C([H])([H])C([H])([H])OC([H])([H])C5([H])[H])c(OC([H])([H])[H])c([H])c34)c(F)c2[H])C([H])([H])C1([H])[H]


 48 53  0  0  0  0  0  0  0  0999 V2000
  -88.7247   34.5824   -3.7482 C   0  0  0  0  0  0  0  0  0  0  0  0
  -89.5010   33.4996   -4.1370 C   0  0  0  0  0  0  0  0  0  0  0  0
  -89.2638   32.2074   -3.7735 C   0  0  0  0  0  0  0  0  0  0  0  0
  -88.1670   31.9245   -2.9515 C   0  0  0  0  0  0  0  0  0  0  0  0
  -87.3756   32.9638   -2.5441 C   0  0  0  0  0  0  0  0  0  0  0  0
  -87.6449   34.2858   -2.9346 C   0  0  0  0  0  0  0  0  0  0  0  0
  -86.8314   35.2618   -2.4687 F   0  0  0  0  0  0  0  0  0  0  0  0
  -87.9530   30.5613   -2.5397 N   0  0  0  0  0  0  0  0  0  0  0  0
  -88.3258   30.0847   -1.3037 C   0  0  0  0  0  0  0  0  0  0  0  0
  -88.8585   30.9512   -0.4979 O   0  0  0  0  0  0  0  0  0  0  0  0
  -87.4721   29.9847   -3.2469 H   0  0  0  0  0  0  0  0  0  0  0  0
  -88.2247   28.7307   -0.7076 C   0  0  0  0  0  0  0  0  0  0  0  0
  -87.6437   28.7022    0.6960 C   0  0  0  0  0  0  0  0  0  0  0  0
  -86.7329   28.3258   -0.3811 C   0  0  0  0  0  0  0  0  0  0  0  0
  -89.0473   27.5884   -1.1072 C   0  0  0  0  0  0  0  0  0  0  0  0
  -89.9118   27.2228   -0.1867 O   0  0  0  0  0  0  0  0  0  0  0  0
  -89.1109   26.8118   -2.2576 N   0  0  0  0  0  0  0  0  0  0  0  0
  -88.5288   26.9646   -3.0974 H   0  0  0  0  0  0  0  0  0  0  0  0
  -90.0660   25.7084   -2.3637 C   0  0  0  0  0  0  0  0  0  0  0  0
  -91.2135   25.9603   -2.9515 C   0  0  0  0  0  0  0  0  0  0  0  0
  -92.2977   25.0053   -3.1609 C   0  0  0  0  0  0  0  0  0  0  0  0
  -92.0672   23.6527   -2.6091 C   0  0  0  0  0  0  0  0  0  0  0  0
  -92.1579   22.6909   -3.6478 F   0  0  0  0  0  0  0  0  0  0  0  0
  -90.7591   23.4763   -1.9757 C   0  0  0  0  0  0  0  0  0  0  0  0
  -89.8266   24.3985   -1.8500 C   0  0  0  0  0  0  0  0  0  0  0  0
  -89.0203   35.8671   -4.1480 O   0  0  0  0  0  0  0  0  0  0  0  0
  -91.2842   36.3177   -7.5304 C   0  0  0  0  0  0  0  0  0  0  0  0
  -90.5418   36.1588   -6.3927 C   0  0  0  0  0  0  0  0  0  0  0  0
  -89.2313   36.5854   -6.3880 C   0  0  0  0  0  0  0  0  0  0  0  0
  -88.4254   36.4398   -5.2382 C   0  0  0  0  0  0  0  0  0  0  0  0
  -87.1188   36.8676   -5.2562 C   0  0  0  0  0  0  0  0  0  0  0  0
  -86.5757   37.4428   -6.3839 C   0  0  0  0  0  0  0  0  0  0  0  0
  -87.3447   37.5809   -7.4754 N   0  0  0  0  0  0  0  0  0  0  0  0
  -88.6412   37.1639   -7.4820 C   0  0  0  0  0  0  0  0  0  0  0  0
  -89.3984   37.3223   -8.6327 C   0  0  0  0  0  0  0  0  0  0  0  0
  -90.7081   36.9079   -8.6675 C   0  0  0  0  0  0  0  0  0  0  0  0
  -93.6069   36.6396   -6.9597 C   0  0  0  0  0  0  0  0  0  0  0  0
  -92.6041   35.9263   -7.6465 O   0  0  0  0  0  0  0  0  0  0  0  0
  -91.4598   37.0657   -9.7857 O   0  0  0  0  0  0  0  0  0  0  0  0
  -91.2522   36.4208  -10.9894 C   0  0  0  0  0  0  0  0  0  0  0  0
  -91.3078   34.9055  -10.8545 C   0  0  0  0  0  0  0  0  0  0  0  0
  -92.6311   34.4181  -11.4595 C   0  0  0  0  0  0  0  0  0  0  0  0
  -93.5341   34.1229  -10.3753 N   0  0  0  0  0  0  0  0  0  0  0  0
  -94.7010   35.0339  -10.4325 C   0  0  0  0  0  0  0  0  0  0  0  0
  -95.6271   34.5296   -9.3219 C   0  0  0  0  0  0  0  0  0  0  0  0
  -94.9615   33.7058   -8.4142 O   0  0  0  0  0  0  0  0  0  0  0  0
  -94.5602   32.4910   -9.0044 C   0  0  0  0  0  0  0  0  0  0  0  0
  -94.0881   32.7715  -10.4372 C   0  0  0  0  0  0  0  0  0  0  0  0
 37 38  1  0  0  0
 38 27  1  0  0  0
 27 28  2  0  0  0
 28 29  1  0  0  0
 29 30  2  0  0  0
 30 26  1  0  0  0
 26  1  1  0  0  0
  1  2  2  0  0  0
  2  3  1  0  0  0
  3  4  2  0  0  0
  4  8  1  0  0  0
  8  9  1  0  0  0
  9 10  2  0  0  0
  9 12  1  0  0  0
 12 13  1  0  0  0
 13 14  1  0  0  0
 12 15  1  0  0  0
 15 16  2  0  0  0
 15 17  1  0  0  0
 17 19  1  0  0  0
 19 20  2  0  0  0
 20 21  1  0  0  0
 21 22  1  0  0  0
 22 23  1  0  0  0
 22 24  1  0  0  0
 24 25  2  0  0  0
  4  5  1  0  0  0
  5  6  2  0  0  0
  6  7  1  0  0  0
 30 31  1  0  0  0
 31 32  2  0  0  0
 32 33  1  0  0  0
 33 34  2  0  0  0
 34 35  1  0  0  0
 35 36  2  0  0  0
 36 39  1  0  0  0
 39 40  1  0  0  0
 40 41  1  0  0  0
 41 42  1  0  0  0
 42 43  1  0  0  0
 43 44  1  0  0  0
 44 45  1  0  0  0
 45 46  1  0  0  0
 46 47  1  0  0  0
 47 48  1  0  0  0
 36 27  1  0  0  0
 48 43  1  0  0  0
 34 29  1  0  0  0
  6  1  1  0  0  0
 14 12  1  0  0  0
 25 19  1  0  0  0
  8 11  1  0  0  0
 17 18  1  0  0  0
M  END
> <minimizedAffinity>
-6.75654

> <CNNscore>
0.0793190598

> <CNNaffinity>
5.9955420494

> <CNN_VS>
0.4755607545

> <CNNaffinity_variance>
0.5071810484

$$$$
[H]C1=C([H])C([H])(F)C([H])([H])C([H])=C1N([H])C(=O)C1(C(=O)N([H])c2c([H])c([H])c(Oc3c([H])c([H])nc4c([H])c(OC([H])([H])C([H])([H])C([H])([H])N5C([H])([H])C([H])([H])OC([H])([H])C5([H])[H])c(OC([H])([H])[H])c([H])c34)c(F)c2[H])C([H])([H])C1([H])[H]


 48 53  0  0  0  0  0  0  0  0999 V2000
  -88.5914   29.5942   -1.1197 C   0  0  0  0  0  0  0  0  0  0  0  0
  -89.7110   29.6154   -0.2997 C   0  0  0  0  0  0  0  0  0  0  0  0
  -89.9727   28.7001    0.6760 C   0  0  0  0  0  0  0  0  0  0  0  0
  -89.0659   27.6552    0.8866 C   0  0  0  0  0  0  0  0  0  0  0  0
  -87.9475   27.5975    0.1002 C   0  0  0  0  0  0  0  0  0  0  0  0
  -87.7040   28.5554   -0.8976 C   0  0  0  0  0  0  0  0  0  0  0  0
  -86.5624   28.4452   -1.6160 F   0  0  0  0  0  0  0  0  0  0  0  0
  -89.3326   26.7202    1.9488 N   0  0  0  0  0  0  0  0  0  0  0  0
  -89.8072   25.4480    1.7255 C   0  0  0  0  0  0  0  0  0  0  0  0
  -90.0412   25.1382    0.4873 O   0  0  0  0  0  0  0  0  0  0  0  0
  -89.1592   27.1021    2.8911 H   0  0  0  0  0  0  0  0  0  0  0  0
  -90.1115   24.3402    2.6631 C   0  0  0  0  0  0  0  0  0  0  0  0
  -90.8786   23.1839    2.0442 C   0  0  0  0  0  0  0  0  0  0  0  0
  -91.6645   24.1159    2.8474 C   0  0  0  0  0  0  0  0  0  0  0  0
  -89.3496   24.0540    3.8791 C   0  0  0  0  0  0  0  0  0  0  0  0
  -89.1425   25.1165    4.6252 O   0  0  0  0  0  0  0  0  0  0  0  0
  -88.8033   22.8939    4.4145 N   0  0  0  0  0  0  0  0  0  0  0  0
  -88.8863   21.9580    3.9849 H   0  0  0  0  0  0  0  0  0  0  0  0
  -88.0771   22.9256    5.6844 C   0  0  0  0  0  0  0  0  0  0  0  0
  -87.7149   21.7727    6.1994 C   0  0  0  0  0  0  0  0  0  0  0  0
  -86.9850   21.5833    7.4494 C   0  0  0  0  0  0  0  0  0  0  0  0
  -86.6810   22.8204    8.2005 C   0  0  0  0  0  0  0  0  0  0  0  0
  -85.2794   22.9343    8.3868 F   0  0  0  0  0  0  0  0  0  0  0  0
  -87.1261   24.0493    7.5407 C   0  0  0  0  0  0  0  0  0  0  0  0
  -87.7659   24.1257    6.3915 C   0  0  0  0  0  0  0  0  0  0  0  0
  -88.3830   30.5526   -2.0870 O   0  0  0  0  0  0  0  0  0  0  0  0
  -88.6759   33.6634   -4.7339 C   0  0  0  0  0  0  0  0  0  0  0  0
  -88.5895   32.6148   -3.8600 C   0  0  0  0  0  0  0  0  0  0  0  0
  -87.7370   32.7155   -2.7817 C   0  0  0  0  0  0  0  0  0  0  0  0
  -87.6121   31.6581   -1.8549 C   0  0  0  0  0  0  0  0  0  0  0  0
  -86.7521   31.7770   -0.7886 C   0  0  0  0  0  0  0  0  0  0  0  0
  -86.0042   32.9190   -0.6038 C   0  0  0  0  0  0  0  0  0  0  0  0
  -86.1258   33.9232   -1.4862 N   0  0  0  0  0  0  0  0  0  0  0  0
  -86.9703   33.8283   -2.5506 C   0  0  0  0  0  0  0  0  0  0  0  0
  -87.0617   34.8883   -3.4398 C   0  0  0  0  0  0  0  0  0  0  0  0
  -87.9037   34.8178   -4.5235 C   0  0  0  0  0  0  0  0  0  0  0  0
  -90.8739   33.4174   -5.6997 C   0  0  0  0  0  0  0  0  0  0  0  0
  -89.4952   33.6698   -5.8464 O   0  0  0  0  0  0  0  0  0  0  0  0
  -88.0066   35.8524   -5.3949 O   0  0  0  0  0  0  0  0  0  0  0  0
  -88.6523   37.0481   -5.1477 C   0  0  0  0  0  0  0  0  0  0  0  0
  -87.8245   38.2541   -5.5694 C   0  0  0  0  0  0  0  0  0  0  0  0
  -86.3421   37.9134   -5.3662 C   0  0  0  0  0  0  0  0  0  0  0  0
  -85.5718   39.1028   -5.6307 N   0  0  0  0  0  0  0  0  0  0  0  0
  -85.0898   39.6821   -4.3551 C   0  0  0  0  0  0  0  0  0  0  0  0
  -84.1903   40.8444   -4.7856 C   0  0  0  0  0  0  0  0  0  0  0  0
  -84.4129   41.2203   -6.1103 O   0  0  0  0  0  0  0  0  0  0  0  0
  -84.0111   40.2178   -7.0151 C   0  0  0  0  0  0  0  0  0  0  0  0
  -84.3709   38.8481   -6.4244 C   0  0  0  0  0  0  0  0  0  0  0  0
 37 38  1  0  0  0
 38 27  1  0  0  0
 27 28  2  0  0  0
 28 29  1  0  0  0
 29 30  2  0  0  0
 30 26  1  0  0  0
 26  1  1  0  0  0
  1  2  2  0  0  0
  2  3  1  0  0  0
  3  4  2  0  0  0
  4  8  1  0  0  0
  8  9  1  0  0  0
  9 10  2  0  0  0
  9 12  1  0  0  0
 12 13  1  0  0  0
 13 14  1  0  0  0
 12 15  1  0  0  0
 15 16  2  0  0  0
 15 17  1  0  0  0
 17 19  1  0  0  0
 19 20  2  0  0  0
 20 21  1  0  0  0
 21 22  1  0  0  0
 22 23  1  0  0  0
 22 24  1  0  0  0
 24 25  2  0  0  0
  4  5  1  0  0  0
  5  6  2  0  0  0
  6  7  1  0  0  0
 30 31  1  0  0  0
 31 32  2  0  0  0
 32 33  1  0  0  0
 33 34  2  0  0  0
 34 35  1  0  0  0
 35 36  2  0  0  0
 36 39  1  0  0  0
 39 40  1  0  0  0
 40 41  1  0  0  0
 41 42  1  0  0  0
 42 43  1  0  0  0
 43 44  1  0  0  0
 44 45  1  0  0  0
 45 46  1  0  0  0
 46 47  1  0  0  0
 47 48  1  0  0  0
 36 27  1  0  0  0
 48 43  1  0  0  0
 34 29  1  0  0  0
  6  1  1  0  0  0
 14 12  1  0  0  0
 25 19  1  0  0  0
  8 11  1  0  0  0
 17 18  1  0  0  0
M  END
> <minimizedAffinity>
-7.97197

> <CNNscore>
0.0734697282

> <CNNaffinity>
6.6123862267

> <CNN_VS>
0.4858102202

> <CNNaffinity_variance>
0.2743681967

$$$$
[H]C1=C([H])C([H])(F)C([H])([H])C([H])=C1N([H])C(=O)C1(C(=O)N([H])c2c([H])c([H])c(Oc3c([H])c([H])nc4c([H])c(OC([H])([H])C([H])([H])C([H])([H])N5C([H])([H])C([H])([H])OC([H])([H])C5([H])[H])c(OC([H])([H])[H])c([H])c34)c(F)c2[H])C([H])([H])C1([H])[H]


 48 53  0  0  0  0  0  0  0  0999 V2000
  -93.5185   28.3646   -3.3080 C   0  0  0  0  0  0  0  0  0  0  0  0
  -92.2886   28.9332   -3.6083 C   0  0  0  0  0  0  0  0  0  0  0  0
  -91.1031   28.5487   -3.0562 C   0  0  0  0  0  0  0  0  0  0  0  0
  -91.0970   27.5104   -2.1178 C   0  0  0  0  0  0  0  0  0  0  0  0
  -92.2887   26.9210   -1.7937 C   0  0  0  0  0  0  0  0  0  0  0  0
  -93.4950   27.3384   -2.3794 C   0  0  0  0  0  0  0  0  0  0  0  0
  -94.6283   26.6882   -2.0269 F   0  0  0  0  0  0  0  0  0  0  0  0
  -89.8330   27.0851   -1.5747 N   0  0  0  0  0  0  0  0  0  0  0  0
  -89.2652   27.6588   -0.4601 C   0  0  0  0  0  0  0  0  0  0  0  0
  -89.9217   28.6461    0.0673 O   0  0  0  0  0  0  0  0  0  0  0  0
  -89.3828   26.3296   -2.1137 H   0  0  0  0  0  0  0  0  0  0  0  0
  -88.0086   27.3510    0.2644 C   0  0  0  0  0  0  0  0  0  0  0  0
  -87.6654   25.8724    0.3303 C   0  0  0  0  0  0  0  0  0  0  0  0
  -88.2525   26.4472    1.5371 C   0  0  0  0  0  0  0  0  0  0  0  0
  -86.9054   28.2956    0.4434 C   0  0  0  0  0  0  0  0  0  0  0  0
  -86.4042   28.7309   -0.6913 O   0  0  0  0  0  0  0  0  0  0  0  0
  -86.2793   28.8339    1.5611 N   0  0  0  0  0  0  0  0  0  0  0  0
  -86.5520   28.6310    2.5367 H   0  0  0  0  0  0  0  0  0  0  0  0
  -85.1742   29.7818    1.4157 C   0  0  0  0  0  0  0  0  0  0  0  0
  -83.9590   29.3245    1.6152 C   0  0  0  0  0  0  0  0  0  0  0  0
  -82.7249   30.0984    1.5191 C   0  0  0  0  0  0  0  0  0  0  0  0
  -82.8987   31.5343    1.2108 C   0  0  0  0  0  0  0  0  0  0  0  0
  -82.1935   31.8571    0.0232 F   0  0  0  0  0  0  0  0  0  0  0  0
  -84.2901   31.9414    1.0063 C   0  0  0  0  0  0  0  0  0  0  0  0
  -85.3483   31.1614    1.0940 C   0  0  0  0  0  0  0  0  0  0  0  0
  -94.6823   28.7975   -3.9046 O   0  0  0  0  0  0  0  0  0  0  0  0
  -94.6960   31.3148   -7.1344 C   0  0  0  0  0  0  0  0  0  0  0  0
  -94.6861   30.4876   -6.0451 C   0  0  0  0  0  0  0  0  0  0  0  0
  -95.1025   29.1826   -6.1966 C   0  0  0  0  0  0  0  0  0  0  0  0
  -95.1125   28.2928   -5.1007 C   0  0  0  0  0  0  0  0  0  0  0  0
  -95.5365   26.9961   -5.2722 C   0  0  0  0  0  0  0  0  0  0  0  0
  -95.9539   26.5430   -6.5042 C   0  0  0  0  0  0  0  0  0  0  0  0
  -95.9424   27.3910   -7.5447 N   0  0  0  0  0  0  0  0  0  0  0  0
  -95.5277   28.6801   -7.3992 C   0  0  0  0  0  0  0  0  0  0  0  0
  -95.5359   29.5231   -8.5001 C   0  0  0  0  0  0  0  0  0  0  0  0
  -95.1253   30.8290   -8.3806 C   0  0  0  0  0  0  0  0  0  0  0  0
  -93.9980   33.2415   -5.8597 C   0  0  0  0  0  0  0  0  0  0  0  0
  -94.3014   32.6383   -7.0967 O   0  0  0  0  0  0  0  0  0  0  0  0
  -95.1219   31.6597   -9.4531 O   0  0  0  0  0  0  0  0  0  0  0  0
  -96.0458   32.6566   -9.6985 C   0  0  0  0  0  0  0  0  0  0  0  0
  -95.4300   33.8613  -10.3963 C   0  0  0  0  0  0  0  0  0  0  0  0
  -94.5526   33.3522  -11.5478 C   0  0  0  0  0  0  0  0  0  0  0  0
  -93.2922   34.0493  -11.4887 N   0  0  0  0  0  0  0  0  0  0  0  0
  -93.5171   35.5057  -11.6416 C   0  0  0  0  0  0  0  0  0  0  0  0
  -92.1325   36.1248  -11.4295 C   0  0  0  0  0  0  0  0  0  0  0  0
  -91.1098   35.1849  -11.5576 O   0  0  0  0  0  0  0  0  0  0  0  0
  -91.1411   34.2305  -10.5216 C   0  0  0  0  0  0  0  0  0  0  0  0
  -92.6043   33.8909  -10.2086 C   0  0  0  0  0  0  0  0  0  0  0  0
 37 38  1  0  0  0
 38 27  1  0  0  0
 27 28  2  0  0  0
 28 29  1  0  0  0
 29 30  2  0  0  0
 30 26  1  0  0  0
 26  1  1  0  0  0
  1  2  2  0  0  0
  2  3  1  0  0  0
  3  4  2  0  0  0
  4  8  1  0  0  0
  8  9  1  0  0  0
  9 10  2  0  0  0
  9 12  1  0  0  0
 12 13  1  0  0  0
 13 14  1  0  0  0
 12 15  1  0  0  0
 15 16  2  0  0  0
 15 17  1  0  0  0
 17 19  1  0  0  0
 19 20  2  0  0  0
 20 21  1  0  0  0
 21 22  1  0  0  0
 22 23  1  0  0  0
 22 24  1  0  0  0
 24 25  2  0  0  0
  4  5  1  0  0  0
  5  6  2  0  0  0
  6  7  1  0  0  0
 30 31  1  0  0  0
 31 32  2  0  0  0
 32 33  1  0  0  0
 33 34  2  0  0  0
 34 35  1  0  0  0
 35 36  2  0  0  0
 36 39  1  0  0  0
 39 40  1  0  0  0
 40 41  1  0  0  0
 41 42  1  0  0  0
 42 43  1  0  0  0
 43 44  1  0  0  0
 44 45  1  0  0  0
 45 46  1  0  0  0
 46 47  1  0  0  0
 47 48  1  0  0  0
 36 27  1  0  0  0
 48 43  1  0  0  0
 34 29  1  0  0  0
  6  1  1  0  0  0
 14 12  1  0  0  0
 25 19  1  0  0  0
  8 11  1  0  0  0
 17 18  1  0  0  0
M  END
> <minimizedAffinity>
-7.31616

> <CNNscore>
0.0720395446

> <CNNaffinity>
5.9800252914

> <CNN_VS>
0.4307982922

> <CNNaffinity_variance>
0.1475184858

$$$$
[H]c1nn(C([H])([H])[H])c([H])c1-c1c([H])c([H])c(C(=O)N([H])c2c([H])c([H])c(C([H])([H])N3C([H])([H])C([H])([H])SC([H])([H])C3([H])[H])c([H])c2[H])c(C#N)c1[H]


 31 34  0  0  0  0  0  0  0  0999 V2000
  -91.5938   28.9679   -0.8610 C   0  0  0  0  0  0  0  0  0  0  0  0
  -90.9312   29.9575   -1.2512 O   0  0  0  0  0  0  0  0  0  0  0  0
  -92.7931   28.5070   -1.4540 N   0  0  0  0  0  0  0  0  0  0  0  0
  -93.3125   27.6917   -1.0370 H   0  0  0  0  0  0  0  0  0  0  0  0
  -90.1433   27.0058    2.6877 C   0  0  0  0  0  0  0  0  0  0  0  0
  -90.8335   28.2239    2.7294 C   0  0  0  0  0  0  0  0  0  0  0  0
  -91.2610   28.8406    1.5858 C   0  0  0  0  0  0  0  0  0  0  0  0
  -91.0269   28.2728    0.3231 C   0  0  0  0  0  0  0  0  0  0  0  0
  -90.3616   27.0961    0.2734 C   0  0  0  0  0  0  0  0  0  0  0  0
  -89.9158   26.4580    1.4600 C   0  0  0  0  0  0  0  0  0  0  0  0
  -88.0214   23.7054    5.7834 C   0  0  0  0  0  0  0  0  0  0  0  0
  -88.7644   24.8589    5.2755 N   0  0  0  0  0  0  0  0  0  0  0  0
  -88.9410   25.2154    3.9965 C   0  0  0  0  0  0  0  0  0  0  0  0
  -89.7332   26.3778    3.9473 C   0  0  0  0  0  0  0  0  0  0  0  0
  -90.0066   26.6778    5.2484 C   0  0  0  0  0  0  0  0  0  0  0  0
  -89.4144   25.7512    6.0405 N   0  0  0  0  0  0  0  0  0  0  0  0
  -90.0381   26.4801   -0.9765 C   0  0  0  0  0  0  0  0  0  0  0  0
  -89.7940   25.9854   -2.0114 N   0  0  0  0  0  0  0  0  0  0  0  0
  -93.3964   29.1003   -2.5821 C   0  0  0  0  0  0  0  0  0  0  0  0
  -94.2099   30.2069   -2.5827 C   0  0  0  0  0  0  0  0  0  0  0  0
  -94.7984   30.7032   -3.7287 C   0  0  0  0  0  0  0  0  0  0  0  0
  -94.5970   30.1046   -4.9687 C   0  0  0  0  0  0  0  0  0  0  0  0
  -93.7880   29.0036   -4.9725 C   0  0  0  0  0  0  0  0  0  0  0  0
  -93.1965   28.4975   -3.8406 C   0  0  0  0  0  0  0  0  0  0  0  0
  -95.2532   30.6764   -6.1895 C   0  0  0  0  0  0  0  0  0  0  0  0
  -94.3218   31.4934   -6.8710 N   0  0  0  0  0  0  0  0  0  0  0  0
  -93.1612   31.9257   -6.2144 C   0  0  0  0  0  0  0  0  0  0  0  0
  -93.0878   33.3890   -5.9119 C   0  0  0  0  0  0  0  0  0  0  0  0
  -94.7091   34.1888   -5.9522 S   0  0  0  0  0  0  0  0  0  0  0  0
  -95.5652   33.5540   -7.4238 C   0  0  0  0  0  0  0  0  0  0  0  0
  -94.8400   32.3332   -7.8889 C   0  0  0  0  0  0  0  0  0  0  0  0
 11 12  1  0  0  0
 12 13  1  0  0  0
 13 14  2  0  0  0
 14 15  1  0  0  0
 15 16  2  0  0  0
 14  5  1  0  0  0
  5  6  2  0  0  0
  6  7  1  0  0  0
  7  8  2  0  0  0
  8  1  1  0  0  0
  1  2  2  0  0  0
  1  3  1  0  0  0
  3 19  1  0  0  0
 19 20  2  0  0  0
 20 21  1  0  0  0
 21 22  2  0  0  0
 22 25  1  0  0  0
 25 26  1  0  0  0
 26 27  1  0  0  0
 27 28  1  0  0  0
 28 29  1  0  0  0
 29 30  1  0  0  0
 30 31  1  0  0  0
 22 23  1  0  0  0
 23 24  2  0  0  0
  8  9  1  0  0  0
  9 10  2  0  0  0
  9 17  1  0  0  0
 17 18  3  0  0  0
 16 12  1  0  0  0
 10  5  1  0  0  0
 24 19  1  0  0  0
 31 26  1  0  0  0
  3  4  1  0  0  0
M  END
> <minimizedAffinity>
-5.29423

> <CNNscore>
0.4165815115

> <CNNaffinity>
5.4003839493

> <CNN_VS>
2.2497000694

> <CNNaffinity_variance>
0.0151654957

$$$$
[H]c1nn(C([H])([H])[H])c([H])c1-c1c([H])c([H])c(C(=O)N([H])c2c([H])c([H])c(C([H])([H])N3C([H])([H])C([H])([H])SC([H])([H])C3([H])[H])c([H])c2[H])c(C#N)c1[H]


 31 34  0  0  0  0  0  0  0  0999 V2000
  -91.5201   27.3538   -2.1340 C   0  0  0  0  0  0  0  0  0  0  0  0
  -90.3767   27.7352   -2.4770 O   0  0  0  0  0  0  0  0  0  0  0  0
  -92.7278   28.0226   -2.4446 N   0  0  0  0  0  0  0  0  0  0  0  0
  -93.6457   27.6577   -2.0802 H   0  0  0  0  0  0  0  0  0  0  0  0
  -91.4574   23.6184    0.0085 C   0  0  0  0  0  0  0  0  0  0  0  0
  -91.6591   23.6893   -1.3757 C   0  0  0  0  0  0  0  0  0  0  0  0
  -91.7013   24.8900   -2.0295 C   0  0  0  0  0  0  0  0  0  0  0  0
  -91.5400   26.1006   -1.3366 C   0  0  0  0  0  0  0  0  0  0  0  0
  -91.3440   26.0416    0.0005 C   0  0  0  0  0  0  0  0  0  0  0  0
  -91.3030   24.7958    0.6787 C   0  0  0  0  0  0  0  0  0  0  0  0
  -89.9923   20.0309    3.1647 C   0  0  0  0  0  0  0  0  0  0  0  0
  -90.6873   20.7414    2.0910 N   0  0  0  0  0  0  0  0  0  0  0  0
  -90.5577   22.0301    1.7497 C   0  0  0  0  0  0  0  0  0  0  0  0
  -91.3944   22.3023    0.6511 C   0  0  0  0  0  0  0  0  0  0  0  0
  -92.0118   21.1196    0.3721 C   0  0  0  0  0  0  0  0  0  0  0  0
  -91.5749   20.1848    1.2507 N   0  0  0  0  0  0  0  0  0  0  0  0
  -91.2236   27.2318    0.7849 C   0  0  0  0  0  0  0  0  0  0  0  0
  -91.1010   28.2105    1.4193 N   0  0  0  0  0  0  0  0  0  0  0  0
  -92.8021   29.2105   -3.2009 C   0  0  0  0  0  0  0  0  0  0  0  0
  -93.1658   30.4505   -2.7356 C   0  0  0  0  0  0  0  0  0  0  0  0
  -93.2553   31.5601   -3.5519 C   0  0  0  0  0  0  0  0  0  0  0  0
  -92.9756   31.4873   -4.9131 C   0  0  0  0  0  0  0  0  0  0  0  0
  -92.6130   30.2556   -5.3800 C   0  0  0  0  0  0  0  0  0  0  0  0
  -92.5208   29.1423   -4.5805 C   0  0  0  0  0  0  0  0  0  0  0  0
  -93.0828   32.7167   -5.7645 C   0  0  0  0  0  0  0  0  0  0  0  0
  -91.7837   33.2146   -6.0172 N   0  0  0  0  0  0  0  0  0  0  0  0
  -90.9373   33.5316   -4.9458 C   0  0  0  0  0  0  0  0  0  0  0  0
  -90.6430   34.9857   -4.7531 C   0  0  0  0  0  0  0  0  0  0  0  0
  -91.8500   36.0534   -5.5735 S   0  0  0  0  0  0  0  0  0  0  0  0
  -92.1385   35.3417   -7.2203 C   0  0  0  0  0  0  0  0  0  0  0  0
  -91.6070   33.9453   -7.2192 C   0  0  0  0  0  0  0  0  0  0  0  0
 11 12  1  0  0  0
 12 13  1  0  0  0
 13 14  2  0  0  0
 14 15  1  0  0  0
 15 16  2  0  0  0
 14  5  1  0  0  0
  5  6  2  0  0  0
  6  7  1  0  0  0
  7  8  2  0  0  0
  8  1  1  0  0  0
  1  2  2  0  0  0
  1  3  1  0  0  0
  3 19  1  0  0  0
 19 20  2  0  0  0
 20 21  1  0  0  0
 21 22  2  0  0  0
 22 25  1  0  0  0
 25 26  1  0  0  0
 26 27  1  0  0  0
 27 28  1  0  0  0
 28 29  1  0  0  0
 29 30  1  0  0  0
 30 31  1  0  0  0
 22 23  1  0  0  0
 23 24  2  0  0  0
  8  9  1  0  0  0
  9 10  2  0  0  0
  9 17  1  0  0  0
 17 18  3  0  0  0
 16 12  1  0  0  0
 10  5  1  0  0  0
 24 19  1  0  0  0
 31 26  1  0  0  0
  3  4  1  0  0  0
M  END
> <minimizedAffinity>
-4.87088

> <CNNscore>
0.2134446055

> <CNNaffinity>
4.7648401260

> <CNN_VS>
1.0170294046

> <CNNaffinity_variance>
0.1694572270

$$$$
[H]c1nn(C([H])([H])[H])c([H])c1-c1c([H])c([H])c(C(=O)N([H])c2c([H])c([H])c(C([H])([H])N3C([H])([H])C([H])([H])SC([H])([H])C3([H])[H])c([H])c2[H])c(C#N)c1[H]


 31 34  0  0  0  0  0  0  0  0999 V2000
  -89.0670   30.5972   -2.7776 C   0  0  0  0  0  0  0  0  0  0  0  0
  -89.1198   31.4501   -1.8608 O   0  0  0  0  0  0  0  0  0  0  0  0
  -89.2762   30.8656   -4.1511 N   0  0  0  0  0  0  0  0  0  0  0  0
  -89.2566   30.0822   -4.8541 H   0  0  0  0  0  0  0  0  0  0  0  0
  -88.2683   26.6534   -1.2428 C   0  0  0  0  0  0  0  0  0  0  0  0
  -88.0151   27.8151   -0.5024 C   0  0  0  0  0  0  0  0  0  0  0  0
  -88.2526   29.0578   -1.0224 C   0  0  0  0  0  0  0  0  0  0  0  0
  -88.7640   29.2167   -2.3204 C   0  0  0  0  0  0  0  0  0  0  0  0
  -89.0122   28.1001   -3.0424 C   0  0  0  0  0  0  0  0  0  0  0  0
  -88.7631   26.8111   -2.5036 C   0  0  0  0  0  0  0  0  0  0  0  0
  -89.2250   22.1280    0.6504 C   0  0  0  0  0  0  0  0  0  0  0  0
  -88.5203   23.3339    0.2148 N   0  0  0  0  0  0  0  0  0  0  0  0
  -89.0412   24.4065   -0.3953 C   0  0  0  0  0  0  0  0  0  0  0  0
  -88.0200   25.3479   -0.6238 C   0  0  0  0  0  0  0  0  0  0  0  0
  -86.8894   24.7759   -0.1215 C   0  0  0  0  0  0  0  0  0  0  0  0
  -87.2067   23.5584    0.3822 N   0  0  0  0  0  0  0  0  0  0  0  0
  -89.4839   28.1791   -4.3905 C   0  0  0  0  0  0  0  0  0  0  0  0
  -89.8926   28.2327   -5.4885 N   0  0  0  0  0  0  0  0  0  0  0  0
  -89.5604   32.1446   -4.6727 C   0  0  0  0  0  0  0  0  0  0  0  0
  -88.6578   33.0130   -5.2361 C   0  0  0  0  0  0  0  0  0  0  0  0
  -89.0087   34.2697   -5.6870 C   0  0  0  0  0  0  0  0  0  0  0  0
  -90.3167   34.7362   -5.5984 C   0  0  0  0  0  0  0  0  0  0  0  0
  -91.2179   33.8752   -5.0389 C   0  0  0  0  0  0  0  0  0  0  0  0
  -90.8836   32.6225   -4.5847 C   0  0  0  0  0  0  0  0  0  0  0  0
  -90.6565   36.1070   -6.1018 C   0  0  0  0  0  0  0  0  0  0  0  0
  -90.7567   36.9884   -5.0006 N   0  0  0  0  0  0  0  0  0  0  0  0
  -90.1227   38.2377   -5.0469 C   0  0  0  0  0  0  0  0  0  0  0  0
  -88.9596   38.4152   -4.1227 C   0  0  0  0  0  0  0  0  0  0  0  0
  -88.2784   36.8400   -3.5529 S   0  0  0  0  0  0  0  0  0  0  0  0
  -89.6951   35.7865   -3.1229 C   0  0  0  0  0  0  0  0  0  0  0  0
  -90.9208   36.3931   -3.7245 C   0  0  0  0  0  0  0  0  0  0  0  0
 11 12  1  0  0  0
 12 13  1  0  0  0
 13 14  2  0  0  0
 14 15  1  0  0  0
 15 16  2  0  0  0
 14  5  1  0  0  0
  5  6  2  0  0  0
  6  7  1  0  0  0
  7  8  2  0  0  0
  8  1  1  0  0  0
  1  2  2  0  0  0
  1  3  1  0  0  0
  3 19  1  0  0  0
 19 20  2  0  0  0
 20 21  1  0  0  0
 21 22  2  0  0  0
 22 25  1  0  0  0
 25 26  1  0  0  0
 26 27  1  0  0  0
 27 28  1  0  0  0
 28 29  1  0  0  0
 29 30  1  0  0  0
 30 31  1  0  0  0
 22 23  1  0  0  0
 23 24  2  0  0  0
  8  9  1  0  0  0
  9 10  2  0  0  0
  9 17  1  0  0  0
 17 18  3  0  0  0
 16 12  1  0  0  0
 10  5  1  0  0  0
 24 19  1  0  0  0
 31 26  1  0  0  0
  3  4  1  0  0  0
M  END
> <minimizedAffinity>
13.70331

> <CNNscore>
0.1992284209

> <CNNaffinity>
5.3982758522

> <CNN_VS>
1.0754899979

> <CNNaffinity_variance>
1.0607597828

$$$$
[H]c1nn(C([H])([H])[H])c([H])c1-c1c([H])c([H])c(C(=O)N([H])c2c([H])c([H])c(C([H])([H])N3C([H])([H])C([H])([H])SC([H])([H])C3([H])[H])c([H])c2[H])c(C#N)c1[H]


 31 34  0  0  0  0  0  0  0  0999 V2000
  -89.4864   31.8551   -4.5680 C   0  0  0  0  0  0  0  0  0  0  0  0
  -88.8526   30.9731   -5.1931 O   0  0  0  0  0  0  0  0  0  0  0  0
  -90.4188   31.6071   -3.5329 N   0  0  0  0  0  0  0  0  0  0  0  0
  -90.9421   32.4046   -3.0873 H   0  0  0  0  0  0  0  0  0  0  0  0
  -88.4268   35.8255   -5.8567 C   0  0  0  0  0  0  0  0  0  0  0  0
  -87.5865   35.0456   -5.0521 C   0  0  0  0  0  0  0  0  0  0  0  0
  -87.9573   33.7971   -4.6339 C   0  0  0  0  0  0  0  0  0  0  0  0
  -89.1964   33.2468   -4.9991 C   0  0  0  0  0  0  0  0  0  0  0  0
  -90.0142   33.9928   -5.7766 C   0  0  0  0  0  0  0  0  0  0  0  0
  -89.6301   35.2890   -6.2080 C   0  0  0  0  0  0  0  0  0  0  0  0
  -85.2739   39.4251   -7.2990 C   0  0  0  0  0  0  0  0  0  0  0  0
  -86.4969   38.7115   -6.9307 N   0  0  0  0  0  0  0  0  0  0  0  0
  -86.6174   37.4200   -6.5968 C   0  0  0  0  0  0  0  0  0  0  0  0
  -87.9649   37.1453   -6.2970 C   0  0  0  0  0  0  0  0  0  0  0  0
  -88.6170   38.3294   -6.4711 C   0  0  0  0  0  0  0  0  0  0  0  0
  -87.7171   39.2675   -6.8545 N   0  0  0  0  0  0  0  0  0  0  0  0
  -91.3139   33.5247   -6.1478 C   0  0  0  0  0  0  0  0  0  0  0  0
  -92.3739   33.1458   -6.4767 N   0  0  0  0  0  0  0  0  0  0  0  0
  -90.7480   30.3213   -3.0564 C   0  0  0  0  0  0  0  0  0  0  0  0
  -91.6002   29.4252   -3.6539 C   0  0  0  0  0  0  0  0  0  0  0  0
  -91.9046   28.1977   -3.1004 C   0  0  0  0  0  0  0  0  0  0  0  0
  -91.3560   27.7891   -1.8886 C   0  0  0  0  0  0  0  0  0  0  0  0
  -90.5074   28.6776   -1.2910 C   0  0  0  0  0  0  0  0  0  0  0  0
  -90.1959   29.9027   -1.8288 C   0  0  0  0  0  0  0  0  0  0  0  0
  -91.7112   26.4469   -1.3226 C   0  0  0  0  0  0  0  0  0  0  0  0
  -91.1448   25.4404   -2.1386 N   0  0  0  0  0  0  0  0  0  0  0  0
  -91.9744   24.4959   -2.7586 C   0  0  0  0  0  0  0  0  0  0  0  0
  -91.8637   23.0937   -2.2486 C   0  0  0  0  0  0  0  0  0  0  0  0
  -91.1117   23.0093   -0.6062 S   0  0  0  0  0  0  0  0  0  0  0  0
  -89.6885   24.1388   -0.6278 C   0  0  0  0  0  0  0  0  0  0  0  0
  -89.8258   25.0315   -1.8180 C   0  0  0  0  0  0  0  0  0  0  0  0
 11 12  1  0  0  0
 12 13  1  0  0  0
 13 14  2  0  0  0
 14 15  1  0  0  0
 15 16  2  0  0  0
 14  5  1  0  0  0
  5  6  2  0  0  0
  6  7  1  0  0  0
  7  8  2  0  0  0
  8  1  1  0  0  0
  1  2  2  0  0  0
  1  3  1  0  0  0
  3 19  1  0  0  0
 19 20  2  0  0  0
 20 21  1  0  0  0
 21 22  2  0  0  0
 22 25  1  0  0  0
 25 26  1  0  0  0
 26 27  1  0  0  0
 27 28  1  0  0  0
 28 29  1  0  0  0
 29 30  1  0  0  0
 30 31  1  0  0  0
 22 23  1  0  0  0
 23 24  2  0  0  0
  8  9  1  0  0  0
  9 10  2  0  0  0
  9 17  1  0  0  0
 17 18  3  0  0  0
 16 12  1  0  0  0
 10  5  1  0  0  0
 24 19  1  0  0  0
 31 26  1  0  0  0
  3  4  1  0  0  0
M  END
> <minimizedAffinity>
-5.85069

> <CNNscore>
0.1514232606

> <CNNaffinity>
5.1026563644

> <CNN_VS>
0.7726608515

> <CNNaffinity_variance>
0.1142333969

$$$$
[H]c1nn(C([H])([H])[H])c([H])c1-c1c([H])c([H])c(C(=O)N([H])c2c([H])c([H])c(C([H])([H])N3C([H])([H])C([H])([H])SC([H])([H])C3([H])[H])c([H])c2[H])c(C#N)c1[H]


 31 34  0  0  0  0  0  0  0  0999 V2000
  -90.0658   30.8708   -3.8077 C   0  0  0  0  0  0  0  0  0  0  0  0
  -89.2719   29.9046   -3.7250 O   0  0  0  0  0  0  0  0  0  0  0  0
  -91.4724   30.7608   -3.9151 N   0  0  0  0  0  0  0  0  0  0  0  0
  -92.0657   31.6237   -4.0241 H   0  0  0  0  0  0  0  0  0  0  0  0
  -88.3183   34.8046   -3.9435 C   0  0  0  0  0  0  0  0  0  0  0  0
  -88.6228   34.0756   -5.1000 C   0  0  0  0  0  0  0  0  0  0  0  0
  -89.1530   32.8166   -5.0302 C   0  0  0  0  0  0  0  0  0  0  0  0
  -89.4165   32.2067   -3.7931 C   0  0  0  0  0  0  0  0  0  0  0  0
  -89.1262   32.9039   -2.6709 C   0  0  0  0  0  0  0  0  0  0  0  0
  -88.5735   34.2090   -2.7438 C   0  0  0  0  0  0  0  0  0  0  0  0
  -87.8105   39.7228   -3.2138 C   0  0  0  0  0  0  0  0  0  0  0  0
  -87.6095   38.3614   -3.7106 N   0  0  0  0  0  0  0  0  0  0  0  0
  -88.2707   37.2551   -3.3459 C   0  0  0  0  0  0  0  0  0  0  0  0
  -87.7770   36.1602   -4.0798 C   0  0  0  0  0  0  0  0  0  0  0  0
  -86.8048   36.6786   -4.8823 C   0  0  0  0  0  0  0  0  0  0  0  0
  -86.7143   38.0104   -4.6483 N   0  0  0  0  0  0  0  0  0  0  0  0
  -89.3162   32.3322   -1.3735 C   0  0  0  0  0  0  0  0  0  0  0  0
  -89.4974   31.8673   -0.3122 N   0  0  0  0  0  0  0  0  0  0  0  0
  -92.1712   29.5360   -3.9287 C   0  0  0  0  0  0  0  0  0  0  0  0
  -92.5427   28.8230   -5.0423 C   0  0  0  0  0  0  0  0  0  0  0  0
  -93.2649   27.6486   -4.9731 C   0  0  0  0  0  0  0  0  0  0  0  0
  -93.6624   27.1088   -3.7536 C   0  0  0  0  0  0  0  0  0  0  0  0
  -93.2945   27.8149   -2.6433 C   0  0  0  0  0  0  0  0  0  0  0  0
  -92.5771   28.9852   -2.6963 C   0  0  0  0  0  0  0  0  0  0  0  0
  -94.4442   25.8299   -3.7221 C   0  0  0  0  0  0  0  0  0  0  0  0
  -93.8168   24.9304   -2.8294 N   0  0  0  0  0  0  0  0  0  0  0  0
  -92.6545   24.2531   -3.2234 C   0  0  0  0  0  0  0  0  0  0  0  0
  -92.7950   22.7775   -3.4266 C   0  0  0  0  0  0  0  0  0  0  0  0
  -94.5145   22.2688   -3.6594 S   0  0  0  0  0  0  0  0  0  0  0  0
  -95.4939   23.1651   -2.4188 C   0  0  0  0  0  0  0  0  0  0  0  0
  -94.6556   24.2822   -1.8881 C   0  0  0  0  0  0  0  0  0  0  0  0
 11 12  1  0  0  0
 12 13  1  0  0  0
 13 14  2  0  0  0
 14 15  1  0  0  0
 15 16  2  0  0  0
 14  5  1  0  0  0
  5  6  2  0  0  0
  6  7  1  0  0  0
  7  8  2  0  0  0
  8  1  1  0  0  0
  1  2  2  0  0  0
  1  3  1  0  0  0
  3 19  1  0  0  0
 19 20  2  0  0  0
 20 21  1  0  0  0
 21 22  2  0  0  0
 22 25  1  0  0  0
 25 26  1  0  0  0
 26 27  1  0  0  0
 27 28  1  0  0  0
 28 29  1  0  0  0
 29 30  1  0  0  0
 30 31  1  0  0  0
 22 23  1  0  0  0
 23 24  2  0  0  0
  8  9  1  0  0  0
  9 10  2  0  0  0
  9 17  1  0  0  0
 17 18  3  0  0  0
 16 12  1  0  0  0
 10  5  1  0  0  0
 24 19  1  0  0  0
 31 26  1  0  0  0
  3  4  1  0  0  0
M  END
> <minimizedAffinity>
-5.67058

> <CNNscore>
0.1455172598

> <CNNaffinity>
4.8695449829

> <CNN_VS>
0.7086028457

> <CNNaffinity_variance>
0.2202159911

$$$$
[H]c1nn(C([H])([H])[H])c([H])c1-c1c([H])c([H])c(C(=O)N([H])c2c([H])c([H])c(C([H])([H])N3C([H])([H])C([H])([H])SC([H])([H])C3([H])[H])c([H])c2[H])c(C#N)c1[H]


 31 34  0  0  0  0  0  0  0  0999 V2000
  -88.9196   30.7792   -1.2582 C   0  0  0  0  0  0  0  0  0  0  0  0
  -88.9140   30.2857   -2.4102 O   0  0  0  0  0  0  0  0  0  0  0  0
  -88.6958   32.1434   -0.9567 N   0  0  0  0  0  0  0  0  0  0  0  0
  -88.6745   32.4695    0.0441 H   0  0  0  0  0  0  0  0  0  0  0  0
  -89.8740   27.8931    1.7925 C   0  0  0  0  0  0  0  0  0  0  0  0
  -90.8369   28.7404    1.2298 C   0  0  0  0  0  0  0  0  0  0  0  0
  -90.5036   29.6674    0.2808 C   0  0  0  0  0  0  0  0  0  0  0  0
  -89.1805   29.8031   -0.1693 C   0  0  0  0  0  0  0  0  0  0  0  0
  -88.2440   28.9883    0.3682 C   0  0  0  0  0  0  0  0  0  0  0  0
  -88.5897   28.0286    1.3548 C   0  0  0  0  0  0  0  0  0  0  0  0
  -90.9312   23.4258    3.7684 C   0  0  0  0  0  0  0  0  0  0  0  0
  -90.7547   24.8690    3.6054 N   0  0  0  0  0  0  0  0  0  0  0  0
  -90.2831   25.5160    2.5315 C   0  0  0  0  0  0  0  0  0  0  0  0
  -90.2942   26.9004    2.7860 C   0  0  0  0  0  0  0  0  0  0  0  0
  -90.7908   27.0264    4.0490 C   0  0  0  0  0  0  0  0  0  0  0  0
  -91.0647   25.7902    4.5323 N   0  0  0  0  0  0  0  0  0  0  0  0
  -86.8660   29.1000    0.0010 C   0  0  0  0  0  0  0  0  0  0  0  0
  -85.7349   29.2138   -0.2872 N   0  0  0  0  0  0  0  0  0  0  0  0
  -88.4488   33.1375   -1.9261 C   0  0  0  0  0  0  0  0  0  0  0  0
  -89.3912   33.7834   -2.6881 C   0  0  0  0  0  0  0  0  0  0  0  0
  -89.0642   34.7183   -3.6498 C   0  0  0  0  0  0  0  0  0  0  0  0
  -87.7419   35.0682   -3.9054 C   0  0  0  0  0  0  0  0  0  0  0  0
  -86.8011   34.4281   -3.1491 C   0  0  0  0  0  0  0  0  0  0  0  0
  -87.1110   33.4950   -2.1897 C   0  0  0  0  0  0  0  0  0  0  0  0
  -87.4295   36.0899   -4.9573 C   0  0  0  0  0  0  0  0  0  0  0  0
  -86.9064   37.2460   -4.3332 N   0  0  0  0  0  0  0  0  0  0  0  0
  -87.7227   38.0146   -3.4918 C   0  0  0  0  0  0  0  0  0  0  0  0
  -88.0923   39.3719   -4.0013 C   0  0  0  0  0  0  0  0  0  0  0  0
  -87.8791   39.5241   -5.7905 S   0  0  0  0  0  0  0  0  0  0  0  0
  -86.2855   38.7487   -6.1916 C   0  0  0  0  0  0  0  0  0  0  0  0
  -85.8665   37.9221   -5.0197 C   0  0  0  0  0  0  0  0  0  0  0  0
 11 12  1  0  0  0
 12 13  1  0  0  0
 13 14  2  0  0  0
 14 15  1  0  0  0
 15 16  2  0  0  0
 14  5  1  0  0  0
  5  6  2  0  0  0
  6  7  1  0  0  0
  7  8  2  0  0  0
  8  1  1  0  0  0
  1  2  2  0  0  0
  1  3  1  0  0  0
  3 19  1  0  0  0
 19 20  2  0  0  0
 20 21  1  0  0  0
 21 22  2  0  0  0
 22 25  1  0  0  0
 25 26  1  0  0  0
 26 27  1  0  0  0
 27 28  1  0  0  0
 28 29  1  0  0  0
 29 30  1  0  0  0
 30 31  1  0  0  0
 22 23  1  0  0  0
 23 24  2  0  0  0
  8  9  1  0  0  0
  9 10  2  0  0  0
  9 17  1  0  0  0
 17 18  3  0  0  0
 16 12  1  0  0  0
 10  5  1  0  0  0
 24 19  1  0  0  0
 31 26  1  0  0  0
  3  4  1  0  0  0
M  END
> <minimizedAffinity>
-7.47143

> <CNNscore>
0.1265048236

> <CNNaffinity>
5.4131431580

> <CNN_VS>
0.6847887039

> <CNNaffinity_variance>
0.1667351872

$$$$
[H]c1nn(C([H])([H])[H])c([H])c1-c1c([H])c([H])c(C(=O)N([H])c2c([H])c([H])c(C([H])([H])N3C([H])([H])C([H])([H])SC([H])([H])C3([H])[H])c([H])c2[H])c(C#N)c1[H]


 31 34  0  0  0  0  0  0  0  0999 V2000
  -89.2047   32.5493   -1.9629 C   0  0  0  0  0  0  0  0  0  0  0  0
  -89.3404   32.9697   -0.7901 O   0  0  0  0  0  0  0  0  0  0  0  0
  -89.3959   31.2088   -2.3737 N   0  0  0  0  0  0  0  0  0  0  0  0
  -89.2188   30.9293   -3.3731 H   0  0  0  0  0  0  0  0  0  0  0  0
  -87.8251   35.4960   -4.7845 C   0  0  0  0  0  0  0  0  0  0  0  0
  -87.1700   35.2506   -3.5711 C   0  0  0  0  0  0  0  0  0  0  0  0
  -87.6432   34.3276   -2.6793 C   0  0  0  0  0  0  0  0  0  0  0  0
  -88.8050   33.5863   -2.9485 C   0  0  0  0  0  0  0  0  0  0  0  0
  -89.4438   33.8163   -4.1185 C   0  0  0  0  0  0  0  0  0  0  0  0
  -88.9540   34.7759   -5.0421 C   0  0  0  0  0  0  0  0  0  0  0  0
  -87.2190   38.1495   -8.9761 C   0  0  0  0  0  0  0  0  0  0  0  0
  -87.0379   37.6255   -7.6222 N   0  0  0  0  0  0  0  0  0  0  0  0
  -87.7868   36.7079   -6.9967 C   0  0  0  0  0  0  0  0  0  0  0  0
  -87.2567   36.4774   -5.7133 C   0  0  0  0  0  0  0  0  0  0  0  0
  -86.1724   37.2984   -5.6231 C   0  0  0  0  0  0  0  0  0  0  0  0
  -86.0523   37.9867   -6.7843 N   0  0  0  0  0  0  0  0  0  0  0  0
  -90.6620   33.1402   -4.4429 C   0  0  0  0  0  0  0  0  0  0  0  0
  -91.6626   32.5782   -4.6844 N   0  0  0  0  0  0  0  0  0  0  0  0
  -89.7819   30.1640   -1.5087 C   0  0  0  0  0  0  0  0  0  0  0  0
  -89.0174   29.6069   -0.5131 C   0  0  0  0  0  0  0  0  0  0  0  0
  -89.4538   28.5541    0.2661 C   0  0  0  0  0  0  0  0  0  0  0  0
  -90.7129   27.9892    0.0878 C   0  0  0  0  0  0  0  0  0  0  0  0
  -91.4769   28.5408   -0.9015 C   0  0  0  0  0  0  0  0  0  0  0  0
  -91.0561   29.5874   -1.6855 C   0  0  0  0  0  0  0  0  0  0  0  0
  -91.1494   26.8480    0.9568 C   0  0  0  0  0  0  0  0  0  0  0  0
  -90.1142   25.8859    1.0049 N   0  0  0  0  0  0  0  0  0  0  0  0
  -89.9316   25.0031   -0.0685 C   0  0  0  0  0  0  0  0  0  0  0  0
  -90.2562   23.5680    0.2028 C   0  0  0  0  0  0  0  0  0  0  0  0
  -91.3198   23.3580    1.6501 S   0  0  0  0  0  0  0  0  0  0  0  0
  -90.6628   24.4549    2.9411 C   0  0  0  0  0  0  0  0  0  0  0  0
  -89.7334   25.4276    2.2913 C   0  0  0  0  0  0  0  0  0  0  0  0
 11 12  1  0  0  0
 12 13  1  0  0  0
 13 14  2  0  0  0
 14 15  1  0  0  0
 15 16  2  0  0  0
 14  5  1  0  0  0
  5  6  2  0  0  0
  6  7  1  0  0  0
  7  8  2  0  0  0
  8  1  1  0  0  0
  1  2  2  0  0  0
  1  3  1  0  0  0
  3 19  1  0  0  0
 19 20  2  0  0  0
 20 21  1  0  0  0
 21 22  2  0  0  0
 22 25  1  0  0  0
 25 26  1  0  0  0
 26 27  1  0  0  0
 27 28  1  0  0  0
 28 29  1  0  0  0
 29 30  1  0  0  0
 30 31  1  0  0  0
 22 23  1  0  0  0
 23 24  2  0  0  0
  8  9  1  0  0  0
  9 10  2  0  0  0
  9 17  1  0  0  0
 17 18  3  0  0  0
 16 12  1  0  0  0
 10  5  1  0  0  0
 24 19  1  0  0  0
 31 26  1  0  0  0
  3  4  1  0  0  0
M  END
> <minimizedAffinity>
-6.55434

> <CNNscore>
0.1147222668

> <CNNaffinity>
5.2899508476

> <CNN_VS>
0.6068751812

> <CNNaffinity_variance>
0.0324735492

$$$$
[H]c1nn(C([H])([H])[H])c([H])c1-c1c([H])c([H])c(C(=O)N([H])c2c([H])c([H])c(C([H])([H])N3C([H])([H])C([H])([H])SC([H])([H])C3([H])[H])c([H])c2[H])c(C#N)c1[H]


 31 34  0  0  0  0  0  0  0  0999 V2000
  -89.7829   29.9869   -1.8519 C   0  0  0  0  0  0  0  0  0  0  0  0
  -89.8459   29.2353   -2.8528 O   0  0  0  0  0  0  0  0  0  0  0  0
  -89.7685   31.4011   -1.8964 N   0  0  0  0  0  0  0  0  0  0  0  0
  -89.6699   31.9593   -1.0092 H   0  0  0  0  0  0  0  0  0  0  0  0
  -89.7823   27.8230    1.8716 C   0  0  0  0  0  0  0  0  0  0  0  0
  -90.9444   28.3836    1.3267 C   0  0  0  0  0  0  0  0  0  0  0  0
  -90.9139   29.0895    0.1554 C   0  0  0  0  0  0  0  0  0  0  0  0
  -89.7138   29.2764   -0.5492 C   0  0  0  0  0  0  0  0  0  0  0  0
  -88.5866   28.7377   -0.0306 C   0  0  0  0  0  0  0  0  0  0  0  0
  -88.6182   28.0079    1.1860 C   0  0  0  0  0  0  0  0  0  0  0  0
  -88.8769   24.2196    5.2145 C   0  0  0  0  0  0  0  0  0  0  0  0
  -89.4308   25.4072    4.5638 N   0  0  0  0  0  0  0  0  0  0  0  0
  -89.0921   25.9159    3.3719 C   0  0  0  0  0  0  0  0  0  0  0  0
  -89.8801   27.0537    3.1157 C   0  0  0  0  0  0  0  0  0  0  0  0
  -90.6869   27.1811    4.2068 C   0  0  0  0  0  0  0  0  0  0  0  0
  -90.4042   26.1790    5.0743 N   0  0  0  0  0  0  0  0  0  0  0  0
  -87.3165   28.9284   -0.6606 C   0  0  0  0  0  0  0  0  0  0  0  0
  -86.2785   29.0625   -1.1896 N   0  0  0  0  0  0  0  0  0  0  0  0
  -89.8381   32.1558   -3.0857 C   0  0  0  0  0  0  0  0  0  0  0  0
  -88.8443   32.9477   -3.6067 C   0  0  0  0  0  0  0  0  0  0  0  0
  -89.0057   33.6914   -4.7585 C   0  0  0  0  0  0  0  0  0  0  0  0
  -90.2009   33.6801   -5.4711 C   0  0  0  0  0  0  0  0  0  0  0  0
  -91.1921   32.8931   -4.9564 C   0  0  0  0  0  0  0  0  0  0  0  0
  -91.0468   32.1487   -3.8110 C   0  0  0  0  0  0  0  0  0  0  0  0
  -90.3345   34.5007   -6.7188 C   0  0  0  0  0  0  0  0  0  0  0  0
  -91.7074   34.7034   -6.9899 N   0  0  0  0  0  0  0  0  0  0  0  0
  -92.2986   34.0832   -8.0994 C   0  0  0  0  0  0  0  0  0  0  0  0
  -92.7150   34.9927   -9.2119 C   0  0  0  0  0  0  0  0  0  0  0  0
  -91.8876   36.5991   -9.1425 S   0  0  0  0  0  0  0  0  0  0  0  0
  -91.9248   37.1279   -7.4045 C   0  0  0  0  0  0  0  0  0  0  0  0
  -92.2622   35.9376   -6.5670 C   0  0  0  0  0  0  0  0  0  0  0  0
 11 12  1  0  0  0
 12 13  1  0  0  0
 13 14  2  0  0  0
 14 15  1  0  0  0
 15 16  2  0  0  0
 14  5  1  0  0  0
  5  6  2  0  0  0
  6  7  1  0  0  0
  7  8  2  0  0  0
  8  1  1  0  0  0
  1  2  2  0  0  0
  1  3  1  0  0  0
  3 19  1  0  0  0
 19 20  2  0  0  0
 20 21  1  0  0  0
 21 22  2  0  0  0
 22 25  1  0  0  0
 25 26  1  0  0  0
 26 27  1  0  0  0
 27 28  1  0  0  0
 28 29  1  0  0  0
 29 30  1  0  0  0
 30 31  1  0  0  0
 22 23  1  0  0  0
 23 24  2  0  0  0
  8  9  1  0  0  0
  9 10  2  0  0  0
  9 17  1  0  0  0
 17 18  3  0  0  0
 16 12  1  0  0  0
 10  5  1  0  0  0
 24 19  1  0  0  0
 31 26  1  0  0  0
  3  4  1  0  0  0
M  END
> <minimizedAffinity>
-6.13651

> <CNNscore>
0.1138981059

> <CNNaffinity>
5.2217497826

> <CNN_VS>
0.5947474241

> <CNNaffinity_variance>
0.0492782630

$$$$
[H]c1nn(C([H])([H])[H])c([H])c1-c1c([H])c([H])c(C(=O)N([H])c2c([H])c([H])c(C([H])([H])N3C([H])([H])C([H])([H])SC([H])([H])C3([H])[H])c([H])c2[H])c(C#N)c1[H]


 31 34  0  0  0  0  0  0  0  0999 V2000
  -89.8506   26.8697   -2.3357 C   0  0  0  0  0  0  0  0  0  0  0  0
  -89.7942   26.7644   -3.5832 O   0  0  0  0  0  0  0  0  0  0  0  0
  -90.6334   26.0537   -1.4851 N   0  0  0  0  0  0  0  0  0  0  0  0
  -90.6578   26.2367   -0.4486 H   0  0  0  0  0  0  0  0  0  0  0  0
  -87.2621   29.9753   -0.8518 C   0  0  0  0  0  0  0  0  0  0  0  0
  -86.7823   28.7207   -1.2483 C   0  0  0  0  0  0  0  0  0  0  0  0
  -87.6282   27.7413   -1.6914 C   0  0  0  0  0  0  0  0  0  0  0  0
  -89.0133   27.9581   -1.7692 C   0  0  0  0  0  0  0  0  0  0  0  0
  -89.4855   29.1673   -1.3888 C   0  0  0  0  0  0  0  0  0  0  0  0
  -88.6078   30.1821   -0.9266 C   0  0  0  0  0  0  0  0  0  0  0  0
  -83.2468   31.9614    1.3643 C   0  0  0  0  0  0  0  0  0  0  0  0
  -84.4914   31.8186    0.6087 N   0  0  0  0  0  0  0  0  0  0  0  0
  -85.1421   30.6847    0.3172 C   0  0  0  0  0  0  0  0  0  0  0  0
  -86.3057   30.9953   -0.4113 C   0  0  0  0  0  0  0  0  0  0  0  0
  -86.3006   32.3533   -0.5286 C   0  0  0  0  0  0  0  0  0  0  0  0
  -85.1978   32.8377    0.0926 N   0  0  0  0  0  0  0  0  0  0  0  0
  -90.8881   29.4484   -1.3889 C   0  0  0  0  0  0  0  0  0  0  0  0
  -92.0423   29.6560   -1.3781 N   0  0  0  0  0  0  0  0  0  0  0  0
  -91.4495   24.9954   -1.9357 C   0  0  0  0  0  0  0  0  0  0  0  0
  -92.5580   25.1073   -2.7387 C   0  0  0  0  0  0  0  0  0  0  0  0
  -93.3316   24.0234   -3.1028 C   0  0  0  0  0  0  0  0  0  0  0  0
  -93.0278   22.7350   -2.6737 C   0  0  0  0  0  0  0  0  0  0  0  0
  -91.9255   22.6193   -1.8748 C   0  0  0  0  0  0  0  0  0  0  0  0
  -91.1469   23.6883   -1.5033 C   0  0  0  0  0  0  0  0  0  0  0  0
  -93.8928   21.5845   -3.0935 C   0  0  0  0  0  0  0  0  0  0  0  0
  -95.0900   21.6123   -2.3415 N   0  0  0  0  0  0  0  0  0  0  0  0
  -95.0413   21.8474   -0.9605 C   0  0  0  0  0  0  0  0  0  0  0  0
  -95.4030   20.6880   -0.0868 C   0  0  0  0  0  0  0  0  0  0  0  0
  -95.2907   19.1043   -0.9524 S   0  0  0  0  0  0  0  0  0  0  0  0
  -96.0491   19.3499   -2.5853 C   0  0  0  0  0  0  0  0  0  0  0  0
  -96.1616   20.8202   -2.8255 C   0  0  0  0  0  0  0  0  0  0  0  0
 11 12  1  0  0  0
 12 13  1  0  0  0
 13 14  2  0  0  0
 14 15  1  0  0  0
 15 16  2  0  0  0
 14  5  1  0  0  0
  5  6  2  0  0  0
  6  7  1  0  0  0
  7  8  2  0  0  0
  8  1  1  0  0  0
  1  2  2  0  0  0
  1  3  1  0  0  0
  3 19  1  0  0  0
 19 20  2  0  0  0
 20 21  1  0  0  0
 21 22  2  0  0  0
 22 25  1  0  0  0
 25 26  1  0  0  0
 26 27  1  0  0  0
 27 28  1  0  0  0
 28 29  1  0  0  0
 29 30  1  0  0  0
 30 31  1  0  0  0
 22 23  1  0  0  0
 23 24  2  0  0  0
  8  9  1  0  0  0
  9 10  2  0  0  0
  9 17  1  0  0  0
 17 18  3  0  0  0
 16 12  1  0  0  0
 10  5  1  0  0  0
 24 19  1  0  0  0
 31 26  1  0  0  0
  3  4  1  0  0  0
M  END
> <minimizedAffinity>
-5.95733

> <CNNscore>
0.1107354611

> <CNNaffinity>
5.3411188126

> <CNN_VS>
0.5914512277

> <CNNaffinity_variance>
0.2258401662

$$$$
[H]OC(=O)c1c([H])c([H])c([H])c(C(=O)N([H])c2sc(N([H])c3c([H])c([H])c4c([H])c([H])c([H])c([H])c4c3[H])nc2C(=O)N([H])[H])c1[H]


 36 39  0  0  0  0  0  0  0  0999 V2000
  -84.9334   31.6812   -0.1186 C   0  0  0  0  0  0  0  0  0  0  0  0
  -84.7474   30.5203    0.4434 N   0  0  0  0  0  0  0  0  0  0  0  0
  -85.6983   29.6637    0.6224 C   0  0  0  0  0  0  0  0  0  0  0  0
  -87.0474   30.5303   -0.0594 S   0  0  0  0  0  0  0  0  0  0  0  0
  -86.2031   31.9715   -0.5242 C   0  0  0  0  0  0  0  0  0  0  0  0
  -82.5282   32.4143    0.3003 N   0  0  0  0  0  0  0  0  0  0  0  0
  -83.8088   32.6540   -0.3123 C   0  0  0  0  0  0  0  0  0  0  0  0
  -83.9058   33.6835   -0.9841 O   0  0  0  0  0  0  0  0  0  0  0  0
  -82.0158   33.1665    0.8107 H   0  0  0  0  0  0  0  0  0  0  0  0
  -82.0634   31.4808    0.2581 H   0  0  0  0  0  0  0  0  0  0  0  0
  -86.7772   33.1213   -1.1652 N   0  0  0  0  0  0  0  0  0  0  0  0
  -87.3271   32.9334   -2.4592 C   0  0  0  0  0  0  0  0  0  0  0  0
  -87.3236   31.8173   -3.0372 O   0  0  0  0  0  0  0  0  0  0  0  0
  -86.7724   34.0132   -0.6778 H   0  0  0  0  0  0  0  0  0  0  0  0
  -87.9175   34.0682   -3.1461 C   0  0  0  0  0  0  0  0  0  0  0  0
  -89.2437   34.4045   -2.9414 C   0  0  0  0  0  0  0  0  0  0  0  0
  -89.7398   35.4908   -3.6320 C   0  0  0  0  0  0  0  0  0  0  0  0
  -88.9656   36.2301   -4.4986 C   0  0  0  0  0  0  0  0  0  0  0  0
  -87.6521   35.8598   -4.6715 C   0  0  0  0  0  0  0  0  0  0  0  0
  -87.1151   34.7862   -4.0058 C   0  0  0  0  0  0  0  0  0  0  0  0
  -86.7898   36.6140   -5.5813 C   0  0  0  0  0  0  0  0  0  0  0  0
  -85.8542   37.4700   -5.0474 O   0  0  0  0  0  0  0  0  0  0  0  0
  -86.8821   36.5004   -6.8185 O   0  0  0  0  0  0  0  0  0  0  0  0
  -85.4493   38.2519   -5.5477 H   0  0  0  0  0  0  0  0  0  0  0  0
  -85.7465   28.3626    1.1965 N   0  0  0  0  0  0  0  0  0  0  0  0
  -84.8828   28.0387    1.7218 H   0  0  0  0  0  0  0  0  0  0  0  0
  -86.8361   27.4860    1.1258 C   0  0  0  0  0  0  0  0  0  0  0  0
  -87.2457   26.7876    0.0119 C   0  0  0  0  0  0  0  0  0  0  0  0
  -88.3305   25.9277    0.0295 C   0  0  0  0  0  0  0  0  0  0  0  0
  -89.0154   25.7722    1.2016 C   0  0  0  0  0  0  0  0  0  0  0  0
  -90.0991   24.9063    1.1993 C   0  0  0  0  0  0  0  0  0  0  0  0
  -90.8228   24.7137    2.3529 C   0  0  0  0  0  0  0  0  0  0  0  0
  -90.4884   25.3672    3.5108 C   0  0  0  0  0  0  0  0  0  0  0  0
  -89.4145   26.2219    3.5033 C   0  0  0  0  0  0  0  0  0  0  0  0
  -88.6608   26.4410    2.3574 C   0  0  0  0  0  0  0  0  0  0  0  0
  -87.5885   27.2812    2.3106 C   0  0  0  0  0  0  0  0  0  0  0  0
  6  7  1  0  0  0
  7  8  2  0  0  0
  7  1  1  0  0  0
  1  2  1  0  0  0
  2  3  2  0  0  0
  3 25  1  0  0  0
 25 27  1  0  0  0
 27 28  2  0  0  0
 28 29  1  0  0  0
 29 30  2  0  0  0
 30 31  1  0  0  0
 31 32  2  0  0  0
 32 33  1  0  0  0
 33 34  2  0  0  0
 34 35  1  0  0  0
 35 36  2  0  0  0
  3  4  1  0  0  0
  4  5  1  0  0  0
  5 11  1  0  0  0
 11 12  1  0  0  0
 12 13  2  0  0  0
 12 15  1  0  0  0
 15 16  2  0  0  0
 16 17  1  0  0  0
 17 18  2  0  0  0
 18 19  1  0  0  0
 19 20  2  0  0  0
 19 21  1  0  0  0
 21 22  1  0  0  0
 21 23  2  0  0  0
  5  1  2  0  0  0
 20 15  1  0  0  0
 36 27  1  0  0  0
 35 30  1  0  0  0
  6  9  1  0  0  0
  6 10  1  0  0  0
 25 26  1  0  0  0
 11 14  1  0  0  0
 22 24  1  0  0  0
M  END
> <minimizedAffinity>
-8.87805

> <CNNscore>
0.5184335113

> <CNNaffinity>
6.6425461769

> <CNN_VS>
3.4437184334

> <CNNaffinity_variance>
0.1632804722

$$$$
[H]OC(=O)c1c([H])c([H])c([H])c(C(=O)N([H])c2sc(N([H])c3c([H])c([H])c4c([H])c([H])c([H])c([H])c4c3[H])nc2C(=O)N([H])[H])c1[H]


 36 39  0  0  0  0  0  0  0  0999 V2000
  -87.5863   32.1074   -3.2750 C   0  0  0  0  0  0  0  0  0  0  0  0
  -86.9282   32.0194   -2.1537 N   0  0  0  0  0  0  0  0  0  0  0  0
  -86.3996   33.0412   -1.5650 C   0  0  0  0  0  0  0  0  0  0  0  0
  -86.8433   34.3156   -2.6674 S   0  0  0  0  0  0  0  0  0  0  0  0
  -87.7027   33.3510   -3.8236 C   0  0  0  0  0  0  0  0  0  0  0  0
  -88.8107   29.8758   -3.1391 N   0  0  0  0  0  0  0  0  0  0  0  0
  -88.1885   30.9024   -3.9338 C   0  0  0  0  0  0  0  0  0  0  0  0
  -88.1891   30.7209   -5.1535 O   0  0  0  0  0  0  0  0  0  0  0  0
  -88.6155   28.8637   -3.3017 H   0  0  0  0  0  0  0  0  0  0  0  0
  -89.4797   30.1032   -2.3711 H   0  0  0  0  0  0  0  0  0  0  0  0
  -88.3391   33.8275   -5.0197 N   0  0  0  0  0  0  0  0  0  0  0  0
  -89.7565   33.8843   -5.0198 C   0  0  0  0  0  0  0  0  0  0  0  0
  -90.4446   33.5387   -4.0264 O   0  0  0  0  0  0  0  0  0  0  0  0
  -87.7628   34.1050   -5.8095 H   0  0  0  0  0  0  0  0  0  0  0  0
  -90.4431   34.3586   -6.2078 C   0  0  0  0  0  0  0  0  0  0  0  0
  -90.0105   35.4962   -6.8655 C   0  0  0  0  0  0  0  0  0  0  0  0
  -90.7142   35.8924   -7.9839 C   0  0  0  0  0  0  0  0  0  0  0  0
  -91.8098   35.1998   -8.4497 C   0  0  0  0  0  0  0  0  0  0  0  0
  -92.2046   34.0743   -7.7645 C   0  0  0  0  0  0  0  0  0  0  0  0
  -91.5351   33.6423   -6.6468 C   0  0  0  0  0  0  0  0  0  0  0  0
  -93.3624   33.3050   -8.2205 C   0  0  0  0  0  0  0  0  0  0  0  0
  -93.7132   32.1675   -7.5304 O   0  0  0  0  0  0  0  0  0  0  0  0
  -94.0328   33.6529   -9.2112 O   0  0  0  0  0  0  0  0  0  0  0  0
  -94.2598   31.4110   -7.9235 H   0  0  0  0  0  0  0  0  0  0  0  0
  -85.6520   33.1990   -0.3645 N   0  0  0  0  0  0  0  0  0  0  0  0
  -85.7472   34.1280    0.1402 H   0  0  0  0  0  0  0  0  0  0  0  0
  -84.8111   32.2316    0.1989 C   0  0  0  0  0  0  0  0  0  0  0  0
  -83.4366   32.2872    0.2617 C   0  0  0  0  0  0  0  0  0  0  0  0
  -82.6772   31.2904    0.8499 C   0  0  0  0  0  0  0  0  0  0  0  0
  -83.3248   30.2132    1.3860 C   0  0  0  0  0  0  0  0  0  0  0  0
  -82.5467   29.2249    1.9710 C   0  0  0  0  0  0  0  0  0  0  0  0
  -83.1485   28.1195    2.5254 C   0  0  0  0  0  0  0  0  0  0  0  0
  -84.5121   27.9783    2.5091 C   0  0  0  0  0  0  0  0  0  0  0  0
  -85.2736   28.9614    1.9281 C   0  0  0  0  0  0  0  0  0  0  0  0
  -84.7007   30.0911    1.3586 C   0  0  0  0  0  0  0  0  0  0  0  0
  -85.4229   31.0879    0.7731 C   0  0  0  0  0  0  0  0  0  0  0  0
  6  7  1  0  0  0
  7  8  2  0  0  0
  7  1  1  0  0  0
  1  2  1  0  0  0
  2  3  2  0  0  0
  3 25  1  0  0  0
 25 27  1  0  0  0
 27 28  2  0  0  0
 28 29  1  0  0  0
 29 30  2  0  0  0
 30 31  1  0  0  0
 31 32  2  0  0  0
 32 33  1  0  0  0
 33 34  2  0  0  0
 34 35  1  0  0  0
 35 36  2  0  0  0
  3  4  1  0  0  0
  4  5  1  0  0  0
  5 11  1  0  0  0
 11 12  1  0  0  0
 12 13  2  0  0  0
 12 15  1  0  0  0
 15 16  2  0  0  0
 16 17  1  0  0  0
 17 18  2  0  0  0
 18 19  1  0  0  0
 19 20  2  0  0  0
 19 21  1  0  0  0
 21 22  1  0  0  0
 21 23  2  0  0  0
  5  1  2  0  0  0
 20 15  1  0  0  0
 36 27  1  0  0  0
 35 30  1  0  0  0
  6  9  1  0  0  0
  6 10  1  0  0  0
 25 26  1  0  0  0
 11 14  1  0  0  0
 22 24  1  0  0  0
M  END
> <minimizedAffinity>
-10.21517

> <CNNscore>
0.2998754978

> <CNNaffinity>
6.0913734436

> <CNN_VS>
1.8266535997

> <CNNaffinity_variance>
0.2430102825

$$$$
[H]OC(=O)c1c([H])c([H])c([H])c(C(=O)N([H])c2sc(N([H])c3c([H])c([H])c4c([H])c([H])c([H])c([H])c4c3[H])nc2C(=O)N([H])[H])c1[H]


 36 39  0  0  0  0  0  0  0  0999 V2000
  -87.7815   32.0775   -3.2766 C   0  0  0  0  0  0  0  0  0  0  0  0
  -87.2259   31.9626   -2.1035 N   0  0  0  0  0  0  0  0  0  0  0  0
  -86.6179   32.9383   -1.5132 C   0  0  0  0  0  0  0  0  0  0  0  0
  -86.8127   34.2037   -2.6952 S   0  0  0  0  0  0  0  0  0  0  0  0
  -87.6980   33.2985   -3.8795 C   0  0  0  0  0  0  0  0  0  0  0  0
  -89.2941   30.0292   -3.1571 N   0  0  0  0  0  0  0  0  0  0  0  0
  -88.4803   30.9260   -3.9357 C   0  0  0  0  0  0  0  0  0  0  0  0
  -88.4050   30.6828   -5.1422 O   0  0  0  0  0  0  0  0  0  0  0  0
  -89.2202   28.9934   -3.2603 H   0  0  0  0  0  0  0  0  0  0  0  0
  -89.9880   30.3792   -2.4606 H   0  0  0  0  0  0  0  0  0  0  0  0
  -88.1773   33.7922   -5.1401 N   0  0  0  0  0  0  0  0  0  0  0  0
  -89.4398   34.4390   -5.1437 C   0  0  0  0  0  0  0  0  0  0  0  0
  -90.1249   34.5853   -4.1002 O   0  0  0  0  0  0  0  0  0  0  0  0
  -87.6051   33.6661   -5.9704 H   0  0  0  0  0  0  0  0  0  0  0  0
  -89.9649   34.9533   -6.3958 C   0  0  0  0  0  0  0  0  0  0  0  0
  -90.8453   34.2015   -7.1532 C   0  0  0  0  0  0  0  0  0  0  0  0
  -91.2989   34.7501   -8.3348 C   0  0  0  0  0  0  0  0  0  0  0  0
  -90.9063   35.9973   -8.7676 C   0  0  0  0  0  0  0  0  0  0  0  0
  -90.0296   36.7096   -7.9827 C   0  0  0  0  0  0  0  0  0  0  0  0
  -89.5517   36.2042   -6.7994 C   0  0  0  0  0  0  0  0  0  0  0  0
  -89.5834   38.0389   -8.3999 C   0  0  0  0  0  0  0  0  0  0  0  0
  -88.3165   38.1781   -8.9184 O   0  0  0  0  0  0  0  0  0  0  0  0
  -90.3178   39.0400   -8.2976 O   0  0  0  0  0  0  0  0  0  0  0  0
  -87.8011   39.0497   -8.9314 H   0  0  0  0  0  0  0  0  0  0  0  0
  -85.9486   33.0597   -0.2633 N   0  0  0  0  0  0  0  0  0  0  0  0
  -86.1862   33.9098    0.3264 H   0  0  0  0  0  0  0  0  0  0  0  0
  -85.0123   32.1515    0.2455 C   0  0  0  0  0  0  0  0  0  0  0  0
  -83.6425   32.2852    0.1987 C   0  0  0  0  0  0  0  0  0  0  0  0
  -82.7837   31.3435    0.7391 C   0  0  0  0  0  0  0  0  0  0  0  0
  -83.3246   30.2418    1.3398 C   0  0  0  0  0  0  0  0  0  0  0  0
  -82.4479   29.3097    1.8753 C   0  0  0  0  0  0  0  0  0  0  0  0
  -82.9403   28.1828    2.4910 C   0  0  0  0  0  0  0  0  0  0  0  0
  -84.2907   27.9651    2.5844 C   0  0  0  0  0  0  0  0  0  0  0  0
  -85.1503   28.8931    2.0516 C   0  0  0  0  0  0  0  0  0  0  0  0
  -84.6892   30.0424    1.4228 C   0  0  0  0  0  0  0  0  0  0  0  0
  -85.5109   30.9861    0.8822 C   0  0  0  0  0  0  0  0  0  0  0  0
  6  7  1  0  0  0
  7  8  2  0  0  0
  7  1  1  0  0  0
  1  2  1  0  0  0
  2  3  2  0  0  0
  3 25  1  0  0  0
 25 27  1  0  0  0
 27 28  2  0  0  0
 28 29  1  0  0  0
 29 30  2  0  0  0
 30 31  1  0  0  0
 31 32  2  0  0  0
 32 33  1  0  0  0
 33 34  2  0  0  0
 34 35  1  0  0  0
 35 36  2  0  0  0
  3  4  1  0  0  0
  4  5  1  0  0  0
  5 11  1  0  0  0
 11 12  1  0  0  0
 12 13  2  0  0  0
 12 15  1  0  0  0
 15 16  2  0  0  0
 16 17  1  0  0  0
 17 18  2  0  0  0
 18 19  1  0  0  0
 19 20  2  0  0  0
 19 21  1  0  0  0
 21 22  1  0  0  0
 21 23  2  0  0  0
  5  1  2  0  0  0
 20 15  1  0  0  0
 36 27  1  0  0  0
 35 30  1  0  0  0
  6  9  1  0  0  0
  6 10  1  0  0  0
 25 26  1  0  0  0
 11 14  1  0  0  0
 22 24  1  0  0  0
M  END
> <minimizedAffinity>
-10.01080

> <CNNscore>
0.2294231057

> <CNNaffinity>
5.9421758652

> <CNN_VS>
1.3632724285

> <CNNaffinity_variance>
0.1372573078

$$$$
[H]OC(=O)c1c([H])c([H])c([H])c(C(=O)N([H])c2sc(N([H])c3c([H])c([H])c4c([H])c([H])c([H])c([H])c4c3[H])nc2C(=O)N([H])[H])c1[H]


 36 39  0  0  0  0  0  0  0  0999 V2000
  -88.2202   33.3661   -3.0922 C   0  0  0  0  0  0  0  0  0  0  0  0
  -87.1041   33.6849   -2.5000 N   0  0  0  0  0  0  0  0  0  0  0  0
  -86.8233   33.3321   -1.2888 C   0  0  0  0  0  0  0  0  0  0  0  0
  -88.2603   32.4402   -0.8700 S   0  0  0  0  0  0  0  0  0  0  0  0
  -89.1096   32.6254   -2.3701 C   0  0  0  0  0  0  0  0  0  0  0  0
  -87.8115   34.8999   -5.0867 N   0  0  0  0  0  0  0  0  0  0  0  0
  -88.5167   33.7906   -4.4995 C   0  0  0  0  0  0  0  0  0  0  0  0
  -89.3529   33.2369   -5.2170 O   0  0  0  0  0  0  0  0  0  0  0  0
  -88.3109   35.6487   -5.6147 H   0  0  0  0  0  0  0  0  0  0  0  0
  -86.7756   34.9983   -5.0072 H   0  0  0  0  0  0  0  0  0  0  0  0
  -90.4096   32.0990   -2.6793 N   0  0  0  0  0  0  0  0  0  0  0  0
  -90.4993   30.7072   -2.9380 C   0  0  0  0  0  0  0  0  0  0  0  0
  -89.4972   29.9493   -2.9022 O   0  0  0  0  0  0  0  0  0  0  0  0
  -91.2064   32.7296   -2.6991 H   0  0  0  0  0  0  0  0  0  0  0  0
  -91.7934   30.1311   -3.2560 C   0  0  0  0  0  0  0  0  0  0  0  0
  -92.7973   30.0841   -2.3053 C   0  0  0  0  0  0  0  0  0  0  0  0
  -93.9993   29.5169   -2.6750 C   0  0  0  0  0  0  0  0  0  0  0  0
  -94.2183   29.0093   -3.9364 C   0  0  0  0  0  0  0  0  0  0  0  0
  -93.1921   29.0772   -4.8498 C   0  0  0  0  0  0  0  0  0  0  0  0
  -91.9790   29.6325   -4.5270 C   0  0  0  0  0  0  0  0  0  0  0  0
  -93.3765   28.5515   -6.2025 C   0  0  0  0  0  0  0  0  0  0  0  0
  -92.3020   27.9741   -6.8392 O   0  0  0  0  0  0  0  0  0  0  0  0
  -94.4750   28.6138   -6.7869 O   0  0  0  0  0  0  0  0  0  0  0  0
  -92.2212   27.8802   -7.8443 H   0  0  0  0  0  0  0  0  0  0  0  0
  -85.7004   33.5506   -0.4425 N   0  0  0  0  0  0  0  0  0  0  0  0
  -85.4962   34.5554   -0.1678 H   0  0  0  0  0  0  0  0  0  0  0  0
  -84.8540   32.5518    0.0539 C   0  0  0  0  0  0  0  0  0  0  0  0
  -83.4952   32.4627   -0.1510 C   0  0  0  0  0  0  0  0  0  0  0  0
  -82.7260   31.4459    0.3882 C   0  0  0  0  0  0  0  0  0  0  0  0
  -83.3474   30.4981    1.1517 C   0  0  0  0  0  0  0  0  0  0  0  0
  -82.5598   29.4875    1.6832 C   0  0  0  0  0  0  0  0  0  0  0  0
  -83.1355   28.5084    2.4589 C   0  0  0  0  0  0  0  0  0  0  0  0
  -84.4820   28.5157    2.7164 C   0  0  0  0  0  0  0  0  0  0  0  0
  -85.2531   29.5198    2.1861 C   0  0  0  0  0  0  0  0  0  0  0  0
  -84.7065   30.5247    1.3985 C   0  0  0  0  0  0  0  0  0  0  0  0
  -85.4388   31.5377    0.8549 C   0  0  0  0  0  0  0  0  0  0  0  0
  6  7  1  0  0  0
  7  8  2  0  0  0
  7  1  1  0  0  0
  1  2  1  0  0  0
  2  3  2  0  0  0
  3 25  1  0  0  0
 25 27  1  0  0  0
 27 28  2  0  0  0
 28 29  1  0  0  0
 29 30  2  0  0  0
 30 31  1  0  0  0
 31 32  2  0  0  0
 32 33  1  0  0  0
 33 34  2  0  0  0
 34 35  1  0  0  0
 35 36  2  0  0  0
  3  4  1  0  0  0
  4  5  1  0  0  0
  5 11  1  0  0  0
 11 12  1  0  0  0
 12 13  2  0  0  0
 12 15  1  0  0  0
 15 16  2  0  0  0
 16 17  1  0  0  0
 17 18  2  0  0  0
 18 19  1  0  0  0
 19 20  2  0  0  0
 19 21  1  0  0  0
 21 22  1  0  0  0
 21 23  2  0  0  0
  5  1  2  0  0  0
 20 15  1  0  0  0
 36 27  1  0  0  0
 35 30  1  0  0  0
  6  9  1  0  0  0
  6 10  1  0  0  0
 25 26  1  0  0  0
 11 14  1  0  0  0
 22 24  1  0  0  0
M  END
> <minimizedAffinity>
-9.92011

> <CNNscore>
0.1687777787

> <CNNaffinity>
5.7288699150

> <CNN_VS>
0.9669059515

> <CNNaffinity_variance>
0.1971828192

$$$$
[H]OC(=O)c1c([H])c([H])c([H])c(C(=O)N([H])c2sc(N([H])c3c([H])c([H])c4c([H])c([H])c([H])c([H])c4c3[H])nc2C(=O)N([H])[H])c1[H]


 36 39  0  0  0  0  0  0  0  0999 V2000
  -88.4517   32.7055   -2.1433 C   0  0  0  0  0  0  0  0  0  0  0  0
  -89.6230   32.6334   -2.7096 N   0  0  0  0  0  0  0  0  0  0  0  0
  -90.5220   31.7726   -2.3617 C   0  0  0  0  0  0  0  0  0  0  0  0
  -89.6860   30.9284   -1.0872 S   0  0  0  0  0  0  0  0  0  0  0  0
  -88.1976   31.8158   -1.1408 C   0  0  0  0  0  0  0  0  0  0  0  0
  -87.8352   34.9112   -3.2625 N   0  0  0  0  0  0  0  0  0  0  0  0
  -87.4293   33.7163   -2.5697 C   0  0  0  0  0  0  0  0  0  0  0  0
  -86.2201   33.5927   -2.3617 O   0  0  0  0  0  0  0  0  0  0  0  0
  -87.3382   35.2441   -4.1176 H   0  0  0  0  0  0  0  0  0  0  0  0
  -88.6406   35.4898   -2.9374 H   0  0  0  0  0  0  0  0  0  0  0  0
  -87.0497   31.5979   -0.3056 N   0  0  0  0  0  0  0  0  0  0  0  0
  -86.3408   30.3823   -0.4845 C   0  0  0  0  0  0  0  0  0  0  0  0
  -86.6847   29.5204   -1.3323 O   0  0  0  0  0  0  0  0  0  0  0  0
  -86.7878   32.3101    0.3706 H   0  0  0  0  0  0  0  0  0  0  0  0
  -85.1743   30.1186    0.3386 C   0  0  0  0  0  0  0  0  0  0  0  0
  -84.1419   31.0364    0.4135 C   0  0  0  0  0  0  0  0  0  0  0  0
  -83.0617   30.7172    1.2100 C   0  0  0  0  0  0  0  0  0  0  0  0
  -82.9885   29.5363    1.9149 C   0  0  0  0  0  0  0  0  0  0  0  0
  -84.0379   28.6531    1.8109 C   0  0  0  0  0  0  0  0  0  0  0  0
  -85.1332   28.9279    1.0307 C   0  0  0  0  0  0  0  0  0  0  0  0
  -84.0064   27.3856    2.5407 C   0  0  0  0  0  0  0  0  0  0  0  0
  -82.8895   27.0781    3.2831 O   0  0  0  0  0  0  0  0  0  0  0  0
  -84.9597   26.5843    2.5061 O   0  0  0  0  0  0  0  0  0  0  0  0
  -82.6248   26.1369    3.5472 H   0  0  0  0  0  0  0  0  0  0  0  0
  -91.8431   31.5014   -2.8156 N   0  0  0  0  0  0  0  0  0  0  0  0
  -92.6055   32.1669   -2.4953 H   0  0  0  0  0  0  0  0  0  0  0  0
  -92.2111   30.4366   -3.6471 C   0  0  0  0  0  0  0  0  0  0  0  0
  -92.4543   30.5093   -5.0006 C   0  0  0  0  0  0  0  0  0  0  0  0
  -92.8025   29.4020   -5.7550 C   0  0  0  0  0  0  0  0  0  0  0  0
  -92.9069   28.1945   -5.1240 C   0  0  0  0  0  0  0  0  0  0  0  0
  -93.2566   27.0970   -5.8969 C   0  0  0  0  0  0  0  0  0  0  0  0
  -93.3754   25.8582   -5.3111 C   0  0  0  0  0  0  0  0  0  0  0  0
  -93.1524   25.6903   -3.9689 C   0  0  0  0  0  0  0  0  0  0  0  0
  -92.8068   26.7822   -3.2124 C   0  0  0  0  0  0  0  0  0  0  0  0
  -92.6776   28.0479   -3.7695 C   0  0  0  0  0  0  0  0  0  0  0  0
  -92.3362   29.1552   -3.0518 C   0  0  0  0  0  0  0  0  0  0  0  0
  6  7  1  0  0  0
  7  8  2  0  0  0
  7  1  1  0  0  0
  1  2  1  0  0  0
  2  3  2  0  0  0
  3 25  1  0  0  0
 25 27  1  0  0  0
 27 28  2  0  0  0
 28 29  1  0  0  0
 29 30  2  0  0  0
 30 31  1  0  0  0
 31 32  2  0  0  0
 32 33  1  0  0  0
 33 34  2  0  0  0
 34 35  1  0  0  0
 35 36  2  0  0  0
  3  4  1  0  0  0
  4  5  1  0  0  0
  5 11  1  0  0  0
 11 12  1  0  0  0
 12 13  2  0  0  0
 12 15  1  0  0  0
 15 16  2  0  0  0
 16 17  1  0  0  0
 17 18  2  0  0  0
 18 19  1  0  0  0
 19 20  2  0  0  0
 19 21  1  0  0  0
 21 22  1  0  0  0
 21 23  2  0  0  0
  5  1  2  0  0  0
 20 15  1  0  0  0
 36 27  1  0  0  0
 35 30  1  0  0  0
  6  9  1  0  0  0
  6 10  1  0  0  0
 25 26  1  0  0  0
 11 14  1  0  0  0
 22 24  1  0  0  0
M  END
> <minimizedAffinity>
-8.83108

> <CNNscore>
0.1669681519

> <CNNaffinity>
5.9513192177

> <CNN_VS>
0.9936807752

> <CNNaffinity_variance>
0.2675029635

$$$$
[H]OC(=O)c1c([H])c([H])c([H])c(C(=O)N([H])c2sc(N([H])c3c([H])c([H])c4c([H])c([H])c([H])c([H])c4c3[H])nc2C(=O)N([H])[H])c1[H]


 36 39  0  0  0  0  0  0  0  0999 V2000
  -89.3950   27.7642   -0.7070 C   0  0  0  0  0  0  0  0  0  0  0  0
  -88.7246   28.8389   -0.4011 N   0  0  0  0  0  0  0  0  0  0  0  0
  -89.1757   30.0326   -0.6054 C   0  0  0  0  0  0  0  0  0  0  0  0
  -90.7279   29.6758   -1.3120 S   0  0  0  0  0  0  0  0  0  0  0  0
  -90.6257   27.9457   -1.2669 C   0  0  0  0  0  0  0  0  0  0  0  0
  -88.4322   25.5636   -1.5603 N   0  0  0  0  0  0  0  0  0  0  0  0
  -88.8440   26.3920   -0.4573 C   0  0  0  0  0  0  0  0  0  0  0  0
  -88.7134   25.9039    0.6676 O   0  0  0  0  0  0  0  0  0  0  0  0
  -88.7091   24.5595   -1.6244 H   0  0  0  0  0  0  0  0  0  0  0  0
  -87.8421   25.9340   -2.3372 H   0  0  0  0  0  0  0  0  0  0  0  0
  -91.6283   27.0247   -1.7241 N   0  0  0  0  0  0  0  0  0  0  0  0
  -91.4686   26.4891   -3.0278 C   0  0  0  0  0  0  0  0  0  0  0  0
  -90.4985   26.7931   -3.7669 O   0  0  0  0  0  0  0  0  0  0  0  0
  -92.4022   26.7904   -1.1083 H   0  0  0  0  0  0  0  0  0  0  0  0
  -92.4586   25.5547   -3.5324 C   0  0  0  0  0  0  0  0  0  0  0  0
  -93.4931   25.9914   -4.3406 C   0  0  0  0  0  0  0  0  0  0  0  0
  -94.4010   25.0496   -4.7785 C   0  0  0  0  0  0  0  0  0  0  0  0
  -94.3046   23.7183   -4.4389 C   0  0  0  0  0  0  0  0  0  0  0  0
  -93.2599   23.3288   -3.6333 C   0  0  0  0  0  0  0  0  0  0  0  0
  -92.3326   24.2304   -3.1737 C   0  0  0  0  0  0  0  0  0  0  0  0
  -93.1150   21.9257   -3.2454 C   0  0  0  0  0  0  0  0  0  0  0  0
  -92.9718   20.9784   -4.2330 O   0  0  0  0  0  0  0  0  0  0  0  0
  -93.1180   21.5711   -2.0511 O   0  0  0  0  0  0  0  0  0  0  0  0
  -93.1862   19.9960   -4.1126 H   0  0  0  0  0  0  0  0  0  0  0  0
  -88.6476   31.3317   -0.3638 N   0  0  0  0  0  0  0  0  0  0  0  0
  -89.3494   32.1104   -0.1966 H   0  0  0  0  0  0  0  0  0  0  0  0
  -87.2866   31.6586   -0.3265 C   0  0  0  0  0  0  0  0  0  0  0  0
  -86.7008   32.7645   -0.9011 C   0  0  0  0  0  0  0  0  0  0  0  0
  -85.3438   33.0219   -0.8065 C   0  0  0  0  0  0  0  0  0  0  0  0
  -84.5632   32.1391   -0.1147 C   0  0  0  0  0  0  0  0  0  0  0  0
  -83.2062   32.4143   -0.0310 C   0  0  0  0  0  0  0  0  0  0  0  0
  -82.3758   31.5580    0.6537 C   0  0  0  0  0  0  0  0  0  0  0  0
  -82.8707   30.4312    1.2579 C   0  0  0  0  0  0  0  0  0  0  0  0
  -84.2148   30.1673    1.1696 C   0  0  0  0  0  0  0  0  0  0  0  0
  -85.0831   31.0091    0.4867 C   0  0  0  0  0  0  0  0  0  0  0  0
  -86.4224   30.7812    0.3774 C   0  0  0  0  0  0  0  0  0  0  0  0
  6  7  1  0  0  0
  7  8  2  0  0  0
  7  1  1  0  0  0
  1  2  1  0  0  0
  2  3  2  0  0  0
  3 25  1  0  0  0
 25 27  1  0  0  0
 27 28  2  0  0  0
 28 29  1  0  0  0
 29 30  2  0  0  0
 30 31  1  0  0  0
 31 32  2  0  0  0
 32 33  1  0  0  0
 33 34  2  0  0  0
 34 35  1  0  0  0
 35 36  2  0  0  0
  3  4  1  0  0  0
  4  5  1  0  0  0
  5 11  1  0  0  0
 11 12  1  0  0  0
 12 13  2  0  0  0
 12 15  1  0  0  0
 15 16  2  0  0  0
 16 17  1  0  0  0
 17 18  2  0  0  0
 18 19  1  0  0  0
 19 20  2  0  0  0
 19 21  1  0  0  0
 21 22  1  0  0  0
 21 23  2  0  0  0
  5  1  2  0  0  0
 20 15  1  0  0  0
 36 27  1  0  0  0
 35 30  1  0  0  0
  6  9  1  0  0  0
  6 10  1  0  0  0
 25 26  1  0  0  0
 11 14  1  0  0  0
 22 24  1  0  0  0
M  END
> <minimizedAffinity>
-9.49027

> <CNNscore>
0.1376428306

> <CNNaffinity>
5.5558490753

> <CNN_VS>
0.7647227645

> <CNNaffinity_variance>
0.2102013826

$$$$
[H]OC(=O)c1c([H])c([H])c([H])c(C(=O)N([H])c2sc(N([H])c3c([H])c([H])c4c([H])c([H])c([H])c([H])c4c3[H])nc2C(=O)N([H])[H])c1[H]


 36 39  0  0  0  0  0  0  0  0999 V2000
  -87.9676   32.7715   -2.1387 C   0  0  0  0  0  0  0  0  0  0  0  0
  -87.6810   31.7281   -1.4125 N   0  0  0  0  0  0  0  0  0  0  0  0
  -88.5558   30.8342   -1.0874 C   0  0  0  0  0  0  0  0  0  0  0  0
  -89.9779   31.4751   -1.8639 S   0  0  0  0  0  0  0  0  0  0  0  0
  -89.2604   32.8930   -2.5572 C   0  0  0  0  0  0  0  0  0  0  0  0
  -85.5444   33.4129   -2.6017 N   0  0  0  0  0  0  0  0  0  0  0  0
  -86.9296   33.7918   -2.4994 C   0  0  0  0  0  0  0  0  0  0  0  0
  -87.1870   34.9768   -2.7232 O   0  0  0  0  0  0  0  0  0  0  0  0
  -84.7872   33.9823   -2.1642 H   0  0  0  0  0  0  0  0  0  0  0  0
  -85.2442   32.5559   -3.1160 H   0  0  0  0  0  0  0  0  0  0  0  0
  -89.9334   33.8820   -3.3518 N   0  0  0  0  0  0  0  0  0  0  0  0
  -89.9768   33.6661   -4.7531 C   0  0  0  0  0  0  0  0  0  0  0  0
  -89.4564   32.6590   -5.2960 O   0  0  0  0  0  0  0  0  0  0  0  0
  -90.3501   34.6865   -2.8913 H   0  0  0  0  0  0  0  0  0  0  0  0
  -90.6459   34.6404   -5.5963 C   0  0  0  0  0  0  0  0  0  0  0  0
  -90.7838   34.4206   -6.9552 C   0  0  0  0  0  0  0  0  0  0  0  0
  -91.4247   35.3918   -7.6962 C   0  0  0  0  0  0  0  0  0  0  0  0
  -91.9183   36.5460   -7.1296 C   0  0  0  0  0  0  0  0  0  0  0  0
  -91.7589   36.7228   -5.7748 C   0  0  0  0  0  0  0  0  0  0  0  0
  -91.1279   35.7838   -4.9975 C   0  0  0  0  0  0  0  0  0  0  0  0
  -92.2662   37.9324   -5.1270 C   0  0  0  0  0  0  0  0  0  0  0  0
  -91.5912   39.1162   -5.3167 O   0  0  0  0  0  0  0  0  0  0  0  0
  -93.2872   37.9158   -4.4132 O   0  0  0  0  0  0  0  0  0  0  0  0
  -91.6477   39.9087   -4.6887 H   0  0  0  0  0  0  0  0  0  0  0  0
  -88.4908   29.6354   -0.3234 N   0  0  0  0  0  0  0  0  0  0  0  0
  -89.3706   29.0425   -0.2871 H   0  0  0  0  0  0  0  0  0  0  0  0
  -87.3658   29.1801    0.3749 C   0  0  0  0  0  0  0  0  0  0  0  0
  -87.2851   28.0253    1.1206 C   0  0  0  0  0  0  0  0  0  0  0  0
  -86.1263   27.6393    1.7723 C   0  0  0  0  0  0  0  0  0  0  0  0
  -85.0251   28.4413    1.6663 C   0  0  0  0  0  0  0  0  0  0  0  0
  -83.8737   28.0377    2.3262 C   0  0  0  0  0  0  0  0  0  0  0  0
  -82.7372   28.8087    2.2521 C   0  0  0  0  0  0  0  0  0  0  0  0
  -82.7243   29.9757    1.5326 C   0  0  0  0  0  0  0  0  0  0  0  0
  -83.8684   30.3668    0.8830 C   0  0  0  0  0  0  0  0  0  0  0  0
  -85.0343   29.6138    0.9355 C   0  0  0  0  0  0  0  0  0  0  0  0
  -86.1890   29.9689    0.3043 C   0  0  0  0  0  0  0  0  0  0  0  0
  6  7  1  0  0  0
  7  8  2  0  0  0
  7  1  1  0  0  0
  1  2  1  0  0  0
  2  3  2  0  0  0
  3 25  1  0  0  0
 25 27  1  0  0  0
 27 28  2  0  0  0
 28 29  1  0  0  0
 29 30  2  0  0  0
 30 31  1  0  0  0
 31 32  2  0  0  0
 32 33  1  0  0  0
 33 34  2  0  0  0
 34 35  1  0  0  0
 35 36  2  0  0  0
  3  4  1  0  0  0
  4  5  1  0  0  0
  5 11  1  0  0  0
 11 12  1  0  0  0
 12 13  2  0  0  0
 12 15  1  0  0  0
 15 16  2  0  0  0
 16 17  1  0  0  0
 17 18  2  0  0  0
 18 19  1  0  0  0
 19 20  2  0  0  0
 19 21  1  0  0  0
 21 22  1  0  0  0
 21 23  2  0  0  0
  5  1  2  0  0  0
 20 15  1  0  0  0
 36 27  1  0  0  0
 35 30  1  0  0  0
  6  9  1  0  0  0
  6 10  1  0  0  0
 25 26  1  0  0  0
 11 14  1  0  0  0
 22 24  1  0  0  0
M  END
> <minimizedAffinity>
-8.58420

> <CNNscore>
0.1269781440

> <CNNaffinity>
5.7810149193

> <CNN_VS>
0.7340625525

> <CNNaffinity_variance>
0.1517108381

$$$$
[H]OC(=O)c1c([H])c([H])c([H])c(C(=O)N([H])c2sc(N([H])c3c([H])c([H])c4c([H])c([H])c([H])c([H])c4c3[H])nc2C(=O)N([H])[H])c1[H]


 36 39  0  0  0  0  0  0  0  0999 V2000
  -88.8732   31.3123   -3.0223 C   0  0  0  0  0  0  0  0  0  0  0  0
  -88.6629   30.2598   -2.2834 N   0  0  0  0  0  0  0  0  0  0  0  0
  -88.8074   30.2601   -0.9992 C   0  0  0  0  0  0  0  0  0  0  0  0
  -89.2977   31.9101   -0.7289 S   0  0  0  0  0  0  0  0  0  0  0  0
  -89.2627   32.4491   -2.3764 C   0  0  0  0  0  0  0  0  0  0  0  0
  -89.7329   31.7828   -5.3755 N   0  0  0  0  0  0  0  0  0  0  0  0
  -88.6971   31.2801   -4.5111 C   0  0  0  0  0  0  0  0  0  0  0  0
  -87.6907   30.8372   -5.0693 O   0  0  0  0  0  0  0  0  0  0  0  0
  -90.0528   31.2503   -6.2140 H   0  0  0  0  0  0  0  0  0  0  0  0
  -90.2033   32.6972   -5.1976 H   0  0  0  0  0  0  0  0  0  0  0  0
  -89.5783   33.7700   -2.8435 N   0  0  0  0  0  0  0  0  0  0  0  0
  -88.5136   34.7052   -2.9075 C   0  0  0  0  0  0  0  0  0  0  0  0
  -87.3375   34.4108   -2.5758 O   0  0  0  0  0  0  0  0  0  0  0  0
  -90.5353   33.9849   -3.1098 H   0  0  0  0  0  0  0  0  0  0  0  0
  -88.7861   36.0532   -3.3727 C   0  0  0  0  0  0  0  0  0  0  0  0
  -87.8666   37.0674   -3.1735 C   0  0  0  0  0  0  0  0  0  0  0  0
  -88.1944   38.3250   -3.6362 C   0  0  0  0  0  0  0  0  0  0  0  0
  -89.3855   38.5883   -4.2756 C   0  0  0  0  0  0  0  0  0  0  0  0
  -90.2700   37.5498   -4.4521 C   0  0  0  0  0  0  0  0  0  0  0  0
  -89.9868   36.2821   -4.0085 C   0  0  0  0  0  0  0  0  0  0  0  0
  -91.5481   37.7798   -5.1257 C   0  0  0  0  0  0  0  0  0  0  0  0
  -92.0239   36.8176   -5.9865 O   0  0  0  0  0  0  0  0  0  0  0  0
  -92.2107   38.8183   -4.9397 O   0  0  0  0  0  0  0  0  0  0  0  0
  -92.6929   36.9976   -6.7251 H   0  0  0  0  0  0  0  0  0  0  0  0
  -88.6425   29.2637    0.0032 N   0  0  0  0  0  0  0  0  0  0  0  0
  -89.5117   28.7276    0.2929 H   0  0  0  0  0  0  0  0  0  0  0  0
  -87.4333   28.9364    0.6286 C   0  0  0  0  0  0  0  0  0  0  0  0
  -87.1979   27.8291    1.4126 C   0  0  0  0  0  0  0  0  0  0  0  0
  -85.9645   27.5714    1.9861 C   0  0  0  0  0  0  0  0  0  0  0  0
  -84.9473   28.4554    1.7605 C   0  0  0  0  0  0  0  0  0  0  0  0
  -83.7191   28.1800    2.3435 C   0  0  0  0  0  0  0  0  0  0  0  0
  -82.6617   29.0376    2.1481 C   0  0  0  0  0  0  0  0  0  0  0  0
  -82.8032   30.1659    1.3823 C   0  0  0  0  0  0  0  0  0  0  0  0
  -84.0223   30.4300    0.8095 C   0  0  0  0  0  0  0  0  0  0  0  0
  -85.1120   29.5870    0.9850 C   0  0  0  0  0  0  0  0  0  0  0  0
  -86.3371   29.8152    0.4329 C   0  0  0  0  0  0  0  0  0  0  0  0
  6  7  1  0  0  0
  7  8  2  0  0  0
  7  1  1  0  0  0
  1  2  1  0  0  0
  2  3  2  0  0  0
  3 25  1  0  0  0
 25 27  1  0  0  0
 27 28  2  0  0  0
 28 29  1  0  0  0
 29 30  2  0  0  0
 30 31  1  0  0  0
 31 32  2  0  0  0
 32 33  1  0  0  0
 33 34  2  0  0  0
 34 35  1  0  0  0
 35 36  2  0  0  0
  3  4  1  0  0  0
  4  5  1  0  0  0
  5 11  1  0  0  0
 11 12  1  0  0  0
 12 13  2  0  0  0
 12 15  1  0  0  0
 15 16  2  0  0  0
 16 17  1  0  0  0
 17 18  2  0  0  0
 18 19  1  0  0  0
 19 20  2  0  0  0
 19 21  1  0  0  0
 21 22  1  0  0  0
 21 23  2  0  0  0
  5  1  2  0  0  0
 20 15  1  0  0  0
 36 27  1  0  0  0
 35 30  1  0  0  0
  6  9  1  0  0  0
  6 10  1  0  0  0
 25 26  1  0  0  0
 11 14  1  0  0  0
 22 24  1  0  0  0
M  END
> <minimizedAffinity>
-9.85298

> <CNNscore>
0.1066445932

> <CNNaffinity>
5.6705951691

> <CNN_VS>
0.6047382951

> <CNNaffinity_variance>
0.1915275902

$$$$
[H]OC(=O)c1c([H])c([H])c([H])c(C(=O)N([H])c2sc(N([H])c3c([H])c([H])c4c([H])c([H])c([H])c([H])c4c3[H])nc2C(=O)N([H])[H])c1[H]


 36 39  0  0  0  0  0  0  0  0999 V2000
  -90.4753   30.5393   -2.7201 C   0  0  0  0  0  0  0  0  0  0  0  0
  -89.6961   31.5698   -2.5498 N   0  0  0  0  0  0  0  0  0  0  0  0
  -89.1167   31.8368   -1.4260 C   0  0  0  0  0  0  0  0  0  0  0  0
  -89.6934   30.5188   -0.4430 S   0  0  0  0  0  0  0  0  0  0  0  0
  -90.6652   29.7270   -1.6407 C   0  0  0  0  0  0  0  0  0  0  0  0
  -91.2300   31.2877   -5.0370 N   0  0  0  0  0  0  0  0  0  0  0  0
  -91.1336   30.2561   -4.0374 C   0  0  0  0  0  0  0  0  0  0  0  0
  -91.6164   29.1618   -4.3372 O   0  0  0  0  0  0  0  0  0  0  0  0
  -92.1199   31.4719   -5.5499 H   0  0  0  0  0  0  0  0  0  0  0  0
  -90.4155   31.8903   -5.2872 H   0  0  0  0  0  0  0  0  0  0  0  0
  -91.4354   28.5296   -1.4518 N   0  0  0  0  0  0  0  0  0  0  0  0
  -90.7404   27.2952   -1.5237 C   0  0  0  0  0  0  0  0  0  0  0  0
  -89.5042   27.2297   -1.7411 O   0  0  0  0  0  0  0  0  0  0  0  0
  -92.4331   28.6064   -1.2736 H   0  0  0  0  0  0  0  0  0  0  0  0
  -91.4787   26.0586   -1.3399 C   0  0  0  0  0  0  0  0  0  0  0  0
  -91.8015   25.6119   -0.0710 C   0  0  0  0  0  0  0  0  0  0  0  0
  -92.4986   24.4257    0.0290 C   0  0  0  0  0  0  0  0  0  0  0  0
  -92.8716   23.6939   -1.0766 C   0  0  0  0  0  0  0  0  0  0  0  0
  -92.5295   24.1758   -2.3187 C   0  0  0  0  0  0  0  0  0  0  0  0
  -91.8363   25.3512   -2.4669 C   0  0  0  0  0  0  0  0  0  0  0  0
  -92.9034   23.4342   -3.5230 C   0  0  0  0  0  0  0  0  0  0  0  0
  -92.3440   22.1954   -3.7366 O   0  0  0  0  0  0  0  0  0  0  0  0
  -93.7102   23.8944   -4.3533 O   0  0  0  0  0  0  0  0  0  0  0  0
  -92.2709   21.7547   -4.6454 H   0  0  0  0  0  0  0  0  0  0  0  0
  -88.2421   32.8753   -0.9996 N   0  0  0  0  0  0  0  0  0  0  0  0
  -88.6749   33.8320   -0.8441 H   0  0  0  0  0  0  0  0  0  0  0  0
  -86.8685   32.7333   -0.7685 C   0  0  0  0  0  0  0  0  0  0  0  0
  -85.8752   33.5612   -1.2422 C   0  0  0  0  0  0  0  0  0  0  0  0
  -84.5363   33.3571   -0.9557 C   0  0  0  0  0  0  0  0  0  0  0  0
  -84.1962   32.2905   -0.1723 C   0  0  0  0  0  0  0  0  0  0  0  0
  -82.8498   32.1027    0.1036 C   0  0  0  0  0  0  0  0  0  0  0  0
  -82.4536   31.0442    0.8873 C   0  0  0  0  0  0  0  0  0  0  0  0
  -83.3729   30.1674    1.4026 C   0  0  0  0  0  0  0  0  0  0  0  0
  -84.7029   30.3614    1.1242 C   0  0  0  0  0  0  0  0  0  0  0  0
  -85.1396   31.4189    0.3368 C   0  0  0  0  0  0  0  0  0  0  0  0
  -86.4503   31.6444    0.0386 C   0  0  0  0  0  0  0  0  0  0  0  0
  6  7  1  0  0  0
  7  8  2  0  0  0
  7  1  1  0  0  0
  1  2  1  0  0  0
  2  3  2  0  0  0
  3 25  1  0  0  0
 25 27  1  0  0  0
 27 28  2  0  0  0
 28 29  1  0  0  0
 29 30  2  0  0  0
 30 31  1  0  0  0
 31 32  2  0  0  0
 32 33  1  0  0  0
 33 34  2  0  0  0
 34 35  1  0  0  0
 35 36  2  0  0  0
  3  4  1  0  0  0
  4  5  1  0  0  0
  5 11  1  0  0  0
 11 12  1  0  0  0
 12 13  2  0  0  0
 12 15  1  0  0  0
 15 16  2  0  0  0
 16 17  1  0  0  0
 17 18  2  0  0  0
 18 19  1  0  0  0
 19 20  2  0  0  0
 19 21  1  0  0  0
 21 22  1  0  0  0
 21 23  2  0  0  0
  5  1  2  0  0  0
 20 15  1  0  0  0
 36 27  1  0  0  0
 35 30  1  0  0  0
  6  9  1  0  0  0
  6 10  1  0  0  0
 25 26  1  0  0  0
 11 14  1  0  0  0
 22 24  1  0  0  0
M  END
> <minimizedAffinity>
-9.06094

> <CNNscore>
0.0937373117

> <CNNaffinity>
5.3918318748

> <CNN_VS>
0.5054157972

> <CNNaffinity_variance>
0.2280612886

$$$$
[H]C1=C(c2c([H])c([H])c3nnn([H])c3c2[H])C([H])([H])[C@@]1(C(=O)N([H])c1c([H])c([H])c(C(F)(F)C(=O)N(C([H])([H])[H])C([H])([H])[H])c([H])c1[H])C(=O)N1C([H])([H])C([H])([H])C([H])([H])C([H])([H])C1([H])[H]


 40 44  0  0  0  0  0  0  0  0999 V2000
  -89.7416   26.8575    1.4338 C   0  0  0  0  0  0  0  0  0  0  0  0
  -88.4552   26.3041    0.9871 C   0  0  0  0  0  0  0  0  0  0  0  0
  -87.8904   27.6168    1.3123 C   0  0  0  0  0  0  0  0  0  0  0  0
  -89.0232   28.0680    1.6990 C   0  0  0  0  0  0  0  0  0  0  0  0
  -86.5551   28.2285    1.2399 C   0  0  0  0  0  0  0  0  0  0  0  0
  -85.4557   27.5529    1.6697 C   0  0  0  0  0  0  0  0  0  0  0  0
  -84.1727   28.1230    1.6079 C   0  0  0  0  0  0  0  0  0  0  0  0
  -84.0596   29.3973    1.0949 C   0  0  0  0  0  0  0  0  0  0  0  0
  -85.1558   30.0816    0.6617 C   0  0  0  0  0  0  0  0  0  0  0  0
  -84.7439   31.2674    0.2253 N   0  0  0  0  0  0  0  0  0  0  0  0
  -83.4089   31.3186    0.3851 N   0  0  0  0  0  0  0  0  0  0  0  0
  -82.9744   30.1792    0.9174 N   0  0  0  0  0  0  0  0  0  0  0  0
  -86.4253   29.4962    0.7316 C   0  0  0  0  0  0  0  0  0  0  0  0
  -85.2845   32.0547   -0.1749 H   0  0  0  0  0  0  0  0  0  0  0  0
  -90.3636   26.1581    2.5736 C   0  0  0  0  0  0  0  0  0  0  0  0
  -91.6359   26.2749    2.6906 O   0  0  0  0  0  0  0  0  0  0  0  0
  -89.7308   25.3866    3.5333 N   0  0  0  0  0  0  0  0  0  0  0  0
  -90.5562   24.7637    4.6011 C   0  0  0  0  0  0  0  0  0  0  0  0
  -90.1116   25.2757    5.9506 C   0  0  0  0  0  0  0  0  0  0  0  0
  -88.6658   24.9348    6.1585 C   0  0  0  0  0  0  0  0  0  0  0  0
  -88.0969   24.2549    4.9574 C   0  0  0  0  0  0  0  0  0  0  0  0
  -88.3264   25.0783    3.6715 C   0  0  0  0  0  0  0  0  0  0  0  0
  -90.2481   26.5794   -1.0346 N   0  0  0  0  0  0  0  0  0  0  0  0
  -90.6840   26.9718    0.2356 C   0  0  0  0  0  0  0  0  0  0  0  0
  -91.8086   27.4152    0.4444 O   0  0  0  0  0  0  0  0  0  0  0  0
  -89.2455   26.2056   -1.0879 H   0  0  0  0  0  0  0  0  0  0  0  0
  -92.2902   26.8443   -4.7549 C   0  0  0  0  0  0  0  0  0  0  0  0
  -92.3001   25.6738   -4.0447 C   0  0  0  0  0  0  0  0  0  0  0  0
  -91.6407   25.5562   -2.8104 C   0  0  0  0  0  0  0  0  0  0  0  0
  -90.9517   26.6129   -2.2552 C   0  0  0  0  0  0  0  0  0  0  0  0
  -90.9588   27.8006   -3.0058 C   0  0  0  0  0  0  0  0  0  0  0  0
  -91.6058   27.9088   -4.2114 C   0  0  0  0  0  0  0  0  0  0  0  0
  -92.9824   27.0002   -6.0614 C   0  0  0  0  0  0  0  0  0  0  0  0
  -94.3252   27.2173   -5.9169 F   0  0  0  0  0  0  0  0  0  0  0  0
  -92.4891   28.1230   -6.7388 F   0  0  0  0  0  0  0  0  0  0  0  0
  -92.7472   25.8327   -6.9477 C   0  0  0  0  0  0  0  0  0  0  0  0
  -91.5673   25.5077   -7.2918 O   0  0  0  0  0  0  0  0  0  0  0  0
  -93.8238   25.0516   -7.4318 N   0  0  0  0  0  0  0  0  0  0  0  0
  -93.5171   23.9195   -8.2907 C   0  0  0  0  0  0  0  0  0  0  0  0
  -95.2084   25.2955   -7.1369 C   0  0  0  0  0  0  0  0  0  0  0  0
 36 37  2  0  0  0
 36 33  1  0  0  0
 33 34  1  0  0  0
 33 35  1  0  0  0
 33 27  1  0  0  0
 27 28  2  0  0  0
 28 29  1  0  0  0
 29 30  2  0  0  0
 30 23  1  0  0  0
 23 24  1  0  0  0
 24 25  2  0  0  0
  1 24  1  0  0  0
  1 15  1  0  0  0
 15 16  2  0  0  0
 15 17  1  0  0  0
 17 18  1  0  0  0
 18 19  1  0  0  0
 19 20  1  0  0  0
 20 21  1  0  0  0
 21 22  1  0  0  0
  1  2  1  0  0  0
  2  3  1  0  0  0
  3  5  1  0  0  0
  5  6  2  0  0  0
  6  7  1  0  0  0
  7  8  2  0  0  0
  8  9  1  0  0  0
  9 10  1  0  0  0
 10 11  1  0  0  0
 11 12  2  0  0  0
  9 13  2  0  0  0
  3  4  2  0  0  0
 30 31  1  0  0  0
 31 32  2  0  0  0
 36 38  1  0  0  0
 38 39  1  0  0  0
 38 40  1  0  0  0
 32 27  1  0  0  0
  4  1  1  0  0  0
 22 17  1  0  0  0
 13  5  1  0  0  0
 12  8  1  0  0  0
 23 26  1  0  0  0
 10 14  1  0  0  0
M  END
> <minimizedAffinity>
3.26493

> <CNNscore>
0.3270684183

> <CNNaffinity>
6.3775663376

> <CNN_VS>
2.0859005451

> <CNNaffinity_variance>
0.9562041163

$$$$
[H]C1=C(c2c([H])c([H])c3nnn([H])c3c2[H])C([H])([H])[C@@]1(C(=O)N([H])c1c([H])c([H])c(C(F)(F)C(=O)N(C([H])([H])[H])C([H])([H])[H])c([H])c1[H])C(=O)N1C([H])([H])C([H])([H])C([H])([H])C([H])([H])C1([H])[H]


 40 44  0  0  0  0  0  0  0  0999 V2000
  -86.7954   32.8099   -1.7973 C   0  0  0  0  0  0  0  0  0  0  0  0
  -86.7507   32.5508   -3.2434 C   0  0  0  0  0  0  0  0  0  0  0  0
  -87.3659   33.8720   -3.3987 C   0  0  0  0  0  0  0  0  0  0  0  0
  -87.3864   34.0702   -2.1351 C   0  0  0  0  0  0  0  0  0  0  0  0
  -87.8081   34.6933   -4.5355 C   0  0  0  0  0  0  0  0  0  0  0  0
  -89.0037   34.4590   -5.1401 C   0  0  0  0  0  0  0  0  0  0  0  0
  -89.4410   35.2341   -6.2277 C   0  0  0  0  0  0  0  0  0  0  0  0
  -88.6165   36.2473   -6.6677 C   0  0  0  0  0  0  0  0  0  0  0  0
  -87.4170   36.4894   -6.0677 C   0  0  0  0  0  0  0  0  0  0  0  0
  -86.8505   37.5129   -6.6983 N   0  0  0  0  0  0  0  0  0  0  0  0
  -87.6877   37.9016   -7.6772 N   0  0  0  0  0  0  0  0  0  0  0  0
  -88.7753   37.1350   -7.6714 N   0  0  0  0  0  0  0  0  0  0  0  0
  -86.9993   35.7061   -4.9855 C   0  0  0  0  0  0  0  0  0  0  0  0
  -85.9417   37.9795   -6.5289 H   0  0  0  0  0  0  0  0  0  0  0  0
  -85.4849   32.8192   -1.1207 C   0  0  0  0  0  0  0  0  0  0  0  0
  -84.5894   33.5906   -1.6198 O   0  0  0  0  0  0  0  0  0  0  0  0
  -85.1096   32.0903   -0.0052 N   0  0  0  0  0  0  0  0  0  0  0  0
  -83.7288   32.2558    0.5196 C   0  0  0  0  0  0  0  0  0  0  0  0
  -83.0043   30.9316    0.4698 C   0  0  0  0  0  0  0  0  0  0  0  0
  -83.7488   29.9277    1.2991 C   0  0  0  0  0  0  0  0  0  0  0  0
  -84.9969   30.5193    1.8652 C   0  0  0  0  0  0  0  0  0  0  0  0
  -85.8830   31.1450    0.7662 C   0  0  0  0  0  0  0  0  0  0  0  0
  -87.8181   30.5039   -1.5456 N   0  0  0  0  0  0  0  0  0  0  0  0
  -87.7822   31.8432   -1.1426 C   0  0  0  0  0  0  0  0  0  0  0  0
  -88.5193   32.2949   -0.2722 O   0  0  0  0  0  0  0  0  0  0  0  0
  -87.1225   30.2297   -2.3130 H   0  0  0  0  0  0  0  0  0  0  0  0
  -90.1820   27.3045   -0.0434 C   0  0  0  0  0  0  0  0  0  0  0  0
  -90.7772   28.3667   -0.6695 C   0  0  0  0  0  0  0  0  0  0  0  0
  -90.0240   29.4355   -1.1817 C   0  0  0  0  0  0  0  0  0  0  0  0
  -88.6499   29.4667   -1.0783 C   0  0  0  0  0  0  0  0  0  0  0  0
  -88.0671   28.3639   -0.4316 C   0  0  0  0  0  0  0  0  0  0  0  0
  -88.8092   27.3223    0.0665 C   0  0  0  0  0  0  0  0  0  0  0  0
  -90.9524   26.1571    0.5049 C   0  0  0  0  0  0  0  0  0  0  0  0
  -90.9733   26.1498    1.8726 F   0  0  0  0  0  0  0  0  0  0  0  0
  -92.2932   26.2409    0.1072 F   0  0  0  0  0  0  0  0  0  0  0  0
  -90.4390   24.8605   -0.0041 C   0  0  0  0  0  0  0  0  0  0  0  0
  -89.8474   24.0476    0.7739 O   0  0  0  0  0  0  0  0  0  0  0  0
  -90.5934   24.4936   -1.3625 N   0  0  0  0  0  0  0  0  0  0  0  0
  -90.0706   23.2057   -1.7879 C   0  0  0  0  0  0  0  0  0  0  0  0
  -91.2323   25.3049   -2.3610 C   0  0  0  0  0  0  0  0  0  0  0  0
 36 37  2  0  0  0
 36 33  1  0  0  0
 33 34  1  0  0  0
 33 35  1  0  0  0
 33 27  1  0  0  0
 27 28  2  0  0  0
 28 29  1  0  0  0
 29 30  2  0  0  0
 30 23  1  0  0  0
 23 24  1  0  0  0
 24 25  2  0  0  0
  1 24  1  0  0  0
  1 15  1  0  0  0
 15 16  2  0  0  0
 15 17  1  0  0  0
 17 18  1  0  0  0
 18 19  1  0  0  0
 19 20  1  0  0  0
 20 21  1  0  0  0
 21 22  1  0  0  0
  1  2  1  0  0  0
  2  3  1  0  0  0
  3  5  1  0  0  0
  5  6  2  0  0  0
  6  7  1  0  0  0
  7  8  2  0  0  0
  8  9  1  0  0  0
  9 10  1  0  0  0
 10 11  1  0  0  0
 11 12  2  0  0  0
  9 13  2  0  0  0
  3  4  2  0  0  0
 30 31  1  0  0  0
 31 32  2  0  0  0
 36 38  1  0  0  0
 38 39  1  0  0  0
 38 40  1  0  0  0
 32 27  1  0  0  0
  4  1  1  0  0  0
 22 17  1  0  0  0
 13  5  1  0  0  0
 12  8  1  0  0  0
 23 26  1  0  0  0
 10 14  1  0  0  0
M  END
> <minimizedAffinity>
-8.88603

> <CNNscore>
0.1930545121

> <CNNaffinity>
6.9012985229

> <CNN_VS>
1.3323267698

> <CNNaffinity_variance>
0.0295521859

$$$$
[H]C1=C(c2c([H])c([H])c3nnn([H])c3c2[H])C([H])([H])[C@@]1(C(=O)N([H])c1c([H])c([H])c(C(F)(F)C(=O)N(C([H])([H])[H])C([H])([H])[H])c([H])c1[H])C(=O)N1C([H])([H])C([H])([H])C([H])([H])C([H])([H])C1([H])[H]


 40 44  0  0  0  0  0  0  0  0999 V2000
  -88.8342   29.6146   -2.7778 C   0  0  0  0  0  0  0  0  0  0  0  0
  -87.7457   28.6282   -2.7242 C   0  0  0  0  0  0  0  0  0  0  0  0
  -87.5959   29.0171   -1.3190 C   0  0  0  0  0  0  0  0  0  0  0  0
  -88.5512   29.8644   -1.3960 C   0  0  0  0  0  0  0  0  0  0  0  0
  -86.7112   28.6224   -0.2127 C   0  0  0  0  0  0  0  0  0  0  0  0
  -87.0138   27.5547    0.5736 C   0  0  0  0  0  0  0  0  0  0  0  0
  -86.1795   27.1646    1.6351 C   0  0  0  0  0  0  0  0  0  0  0  0
  -85.0361   27.9013    1.8582 C   0  0  0  0  0  0  0  0  0  0  0  0
  -84.7249   28.9725    1.0751 C   0  0  0  0  0  0  0  0  0  0  0  0
  -83.5801   29.4787    1.5216 N   0  0  0  0  0  0  0  0  0  0  0  0
  -83.1853   28.7312    2.5683 N   0  0  0  0  0  0  0  0  0  0  0  0
  -84.0678   27.7597    2.7872 N   0  0  0  0  0  0  0  0  0  0  0  0
  -85.5689   29.3451    0.0226 C   0  0  0  0  0  0  0  0  0  0  0  0
  -83.0335   30.2904    1.1830 H   0  0  0  0  0  0  0  0  0  0  0  0
  -90.1594   29.0683   -3.1250 C   0  0  0  0  0  0  0  0  0  0  0  0
  -90.9364   29.8369   -3.7970 O   0  0  0  0  0  0  0  0  0  0  0  0
  -90.6620   27.8175   -2.8095 N   0  0  0  0  0  0  0  0  0  0  0  0
  -92.0324   27.4671   -3.2661 C   0  0  0  0  0  0  0  0  0  0  0  0
  -92.9075   27.1757   -2.0701 C   0  0  0  0  0  0  0  0  0  0  0  0
  -92.3208   26.0348   -1.2929 C   0  0  0  0  0  0  0  0  0  0  0  0
  -91.0338   25.5797   -1.8969 C   0  0  0  0  0  0  0  0  0  0  0  0
  -90.0375   26.7470   -2.0674 C   0  0  0  0  0  0  0  0  0  0  0  0
  -88.8034   32.0783   -3.3743 N   0  0  0  0  0  0  0  0  0  0  0  0
  -88.4227   30.7697   -3.6906 C   0  0  0  0  0  0  0  0  0  0  0  0
  -87.7619   30.4924   -4.6863 O   0  0  0  0  0  0  0  0  0  0  0  0
  -89.3768   32.1924   -2.4765 H   0  0  0  0  0  0  0  0  0  0  0  0
  -87.8285   35.6736   -5.4248 C   0  0  0  0  0  0  0  0  0  0  0  0
  -88.9276   34.9455   -5.7941 C   0  0  0  0  0  0  0  0  0  0  0  0
  -89.2796   33.7576   -5.1330 C   0  0  0  0  0  0  0  0  0  0  0  0
  -88.5355   33.2675   -4.0814 C   0  0  0  0  0  0  0  0  0  0  0  0
  -87.4141   34.0352   -3.7248 C   0  0  0  0  0  0  0  0  0  0  0  0
  -87.0759   35.1956   -4.3749 C   0  0  0  0  0  0  0  0  0  0  0  0
  -87.4333   36.9365   -6.1026 C   0  0  0  0  0  0  0  0  0  0  0  0
  -86.3826   37.5542   -5.4815 F   0  0  0  0  0  0  0  0  0  0  0  0
  -86.9968   36.6691   -7.4068 F   0  0  0  0  0  0  0  0  0  0  0  0
  -88.5779   37.8744   -6.2221 C   0  0  0  0  0  0  0  0  0  0  0  0
  -89.1381   38.0729   -7.3458 O   0  0  0  0  0  0  0  0  0  0  0  0
  -89.0760   38.5700   -5.0945 N   0  0  0  0  0  0  0  0  0  0  0  0
  -90.2032   39.4677   -5.2863 C   0  0  0  0  0  0  0  0  0  0  0  0
  -88.5469   38.4558   -3.7639 C   0  0  0  0  0  0  0  0  0  0  0  0
 36 37  2  0  0  0
 36 33  1  0  0  0
 33 34  1  0  0  0
 33 35  1  0  0  0
 33 27  1  0  0  0
 27 28  2  0  0  0
 28 29  1  0  0  0
 29 30  2  0  0  0
 30 23  1  0  0  0
 23 24  1  0  0  0
 24 25  2  0  0  0
  1 24  1  0  0  0
  1 15  1  0  0  0
 15 16  2  0  0  0
 15 17  1  0  0  0
 17 18  1  0  0  0
 18 19  1  0  0  0
 19 20  1  0  0  0
 20 21  1  0  0  0
 21 22  1  0  0  0
  1  2  1  0  0  0
  2  3  1  0  0  0
  3  5  1  0  0  0
  5  6  2  0  0  0
  6  7  1  0  0  0
  7  8  2  0  0  0
  8  9  1  0  0  0
  9 10  1  0  0  0
 10 11  1  0  0  0
 11 12  2  0  0  0
  9 13  2  0  0  0
  3  4  2  0  0  0
 30 31  1  0  0  0
 31 32  2  0  0  0
 36 38  1  0  0  0
 38 39  1  0  0  0
 38 40  1  0  0  0
 32 27  1  0  0  0
  4  1  1  0  0  0
 22 17  1  0  0  0
 13  5  1  0  0  0
 12  8  1  0  0  0
 23 26  1  0  0  0
 10 14  1  0  0  0
M  END
> <minimizedAffinity>
-9.51040

> <CNNscore>
0.1786050349

> <CNNaffinity>
6.5557608604

> <CNN_VS>
1.1708918810

> <CNNaffinity_variance>
0.1073577777

$$$$
[H]C1=C(c2c([H])c([H])c3nnn([H])c3c2[H])C([H])([H])[C@@]1(C(=O)N([H])c1c([H])c([H])c(C(F)(F)C(=O)N(C([H])([H])[H])C([H])([H])[H])c([H])c1[H])C(=O)N1C([H])([H])C([H])([H])C([H])([H])C([H])([H])C1([H])[H]


 40 44  0  0  0  0  0  0  0  0999 V2000
  -88.8528   29.5648   -2.6952 C   0  0  0  0  0  0  0  0  0  0  0  0
  -87.7432   28.6022   -2.6453 C   0  0  0  0  0  0  0  0  0  0  0  0
  -87.5895   29.0027   -1.2438 C   0  0  0  0  0  0  0  0  0  0  0  0
  -88.5633   29.8291   -1.3175 C   0  0  0  0  0  0  0  0  0  0  0  0
  -86.6871   28.6338   -0.1429 C   0  0  0  0  0  0  0  0  0  0  0  0
  -86.9825   27.5919    0.6798 C   0  0  0  0  0  0  0  0  0  0  0  0
  -86.1313   27.2265    1.7366 C   0  0  0  0  0  0  0  0  0  0  0  0
  -84.9787   27.9606    1.9168 C   0  0  0  0  0  0  0  0  0  0  0  0
  -84.6746   29.0062    1.0970 C   0  0  0  0  0  0  0  0  0  0  0  0
  -83.5181   29.5164    1.5072 N   0  0  0  0  0  0  0  0  0  0  0  0
  -83.1091   28.7967    2.5679 N   0  0  0  0  0  0  0  0  0  0  0  0
  -83.9943   27.8389    2.8315 N   0  0  0  0  0  0  0  0  0  0  0  0
  -85.5355   29.3543    0.0498 C   0  0  0  0  0  0  0  0  0  0  0  0
  -82.9721   30.3137    1.1349 H   0  0  0  0  0  0  0  0  0  0  0  0
  -90.1690   28.9883   -3.0276 C   0  0  0  0  0  0  0  0  0  0  0  0
  -90.1915   27.7352   -3.3018 O   0  0  0  0  0  0  0  0  0  0  0  0
  -91.3865   29.6455   -3.0763 N   0  0  0  0  0  0  0  0  0  0  0  0
  -92.6008   28.8655   -3.4319 C   0  0  0  0  0  0  0  0  0  0  0  0
  -93.2165   29.4296   -4.6904 C   0  0  0  0  0  0  0  0  0  0  0  0
  -93.5812   30.8666   -4.4628 C   0  0  0  0  0  0  0  0  0  0  0  0
  -93.1741   31.3138   -3.0980 C   0  0  0  0  0  0  0  0  0  0  0  0
  -91.6789   31.0382   -2.8279 C   0  0  0  0  0  0  0  0  0  0  0  0
  -88.5363   32.0390   -3.1482 N   0  0  0  0  0  0  0  0  0  0  0  0
  -88.4740   30.7228   -3.6185 C   0  0  0  0  0  0  0  0  0  0  0  0
  -88.1249   30.4412   -4.7603 O   0  0  0  0  0  0  0  0  0  0  0  0
  -88.8532   32.1556   -2.1314 H   0  0  0  0  0  0  0  0  0  0  0  0
  -87.8060   35.6270   -5.3100 C   0  0  0  0  0  0  0  0  0  0  0  0
  -87.0099   35.2869   -4.2493 C   0  0  0  0  0  0  0  0  0  0  0  0
  -87.2213   34.1060   -3.5192 C   0  0  0  0  0  0  0  0  0  0  0  0
  -88.2404   33.2334   -3.8350 C   0  0  0  0  0  0  0  0  0  0  0  0
  -89.0405   33.6081   -4.9275 C   0  0  0  0  0  0  0  0  0  0  0  0
  -88.8281   34.7636   -5.6370 C   0  0  0  0  0  0  0  0  0  0  0  0
  -87.6042   36.8676   -6.1041 C   0  0  0  0  0  0  0  0  0  0  0  0
  -86.6910   37.7099   -5.5314 F   0  0  0  0  0  0  0  0  0  0  0  0
  -87.0875   36.5538   -7.3681 F   0  0  0  0  0  0  0  0  0  0  0  0
  -88.8840   37.5838   -6.3346 C   0  0  0  0  0  0  0  0  0  0  0  0
  -89.4238   37.5916   -7.4855 O   0  0  0  0  0  0  0  0  0  0  0  0
  -89.5367   38.2740   -5.2853 N   0  0  0  0  0  0  0  0  0  0  0  0
  -90.7898   38.9477   -5.5838 C   0  0  0  0  0  0  0  0  0  0  0  0
  -89.0501   38.3605   -3.9365 C   0  0  0  0  0  0  0  0  0  0  0  0
 36 37  2  0  0  0
 36 33  1  0  0  0
 33 34  1  0  0  0
 33 35  1  0  0  0
 33 27  1  0  0  0
 27 28  2  0  0  0
 28 29  1  0  0  0
 29 30  2  0  0  0
 30 23  1  0  0  0
 23 24  1  0  0  0
 24 25  2  0  0  0
  1 24  1  0  0  0
  1 15  1  0  0  0
 15 16  2  0  0  0
 15 17  1  0  0  0
 17 18  1  0  0  0
 18 19  1  0  0  0
 19 20  1  0  0  0
 20 21  1  0  0  0
 21 22  1  0  0  0
  1  2  1  0  0  0
  2  3  1  0  0  0
  3  5  1  0  0  0
  5  6  2  0  0  0
  6  7  1  0  0  0
  7  8  2  0  0  0
  8  9  1  0  0  0
  9 10  1  0  0  0
 10 11  1  0  0  0
 11 12  2  0  0  0
  9 13  2  0  0  0
  3  4  2  0  0  0
 30 31  1  0  0  0
 31 32  2  0  0  0
 36 38  1  0  0  0
 38 39  1  0  0  0
 38 40  1  0  0  0
 32 27  1  0  0  0
  4  1  1  0  0  0
 22 17  1  0  0  0
 13  5  1  0  0  0
 12  8  1  0  0  0
 23 26  1  0  0  0
 10 14  1  0  0  0
M  END
> <minimizedAffinity>
-9.36758

> <CNNscore>
0.1552038938

> <CNNaffinity>
6.5599107742

> <CNN_VS>
1.0181237459

> <CNNaffinity_variance>
0.1279344261

$$$$
[H]C1=C(c2c([H])c([H])c3nnn([H])c3c2[H])C([H])([H])[C@@]1(C(=O)N([H])c1c([H])c([H])c(C(F)(F)C(=O)N(C([H])([H])[H])C([H])([H])[H])c([H])c1[H])C(=O)N1C([H])([H])C([H])([H])C([H])([H])C([H])([H])C1([H])[H]


 40 44  0  0  0  0  0  0  0  0999 V2000
  -87.2451   30.9372   -0.6909 C   0  0  0  0  0  0  0  0  0  0  0  0
  -88.3259   30.2294    0.0100 C   0  0  0  0  0  0  0  0  0  0  0  0
  -88.0830   29.1320   -0.9307 C   0  0  0  0  0  0  0  0  0  0  0  0
  -87.1431   29.7717   -1.5172 C   0  0  0  0  0  0  0  0  0  0  0  0
  -88.6633   27.8000   -1.1570 C   0  0  0  0  0  0  0  0  0  0  0  0
  -89.5058   27.5759   -2.2010 C   0  0  0  0  0  0  0  0  0  0  0  0
  -90.0691   26.3092   -2.4311 C   0  0  0  0  0  0  0  0  0  0  0  0
  -89.7406   25.2918   -1.5611 C   0  0  0  0  0  0  0  0  0  0  0  0
  -88.8970   25.5073   -0.5125 C   0  0  0  0  0  0  0  0  0  0  0  0
  -88.7674   24.3584    0.1427 N   0  0  0  0  0  0  0  0  0  0  0  0
  -89.5206   23.4411   -0.4911 N   0  0  0  0  0  0  0  0  0  0  0  0
  -90.1238   23.9983   -1.5381 N   0  0  0  0  0  0  0  0  0  0  0  0
  -88.3461   26.7763   -0.3003 C   0  0  0  0  0  0  0  0  0  0  0  0
  -88.2124   24.1318    0.9871 H   0  0  0  0  0  0  0  0  0  0  0  0
  -86.0846   31.2963    0.1455 C   0  0  0  0  0  0  0  0  0  0  0  0
  -85.5711   32.4546   -0.0562 O   0  0  0  0  0  0  0  0  0  0  0  0
  -85.4852   30.5256    1.1270 N   0  0  0  0  0  0  0  0  0  0  0  0
  -84.3196   31.0878    1.8582 C   0  0  0  0  0  0  0  0  0  0  0  0
  -83.1095   30.2121    1.6353 C   0  0  0  0  0  0  0  0  0  0  0  0
  -83.4024   28.8265    2.1296 C   0  0  0  0  0  0  0  0  0  0  0  0
  -84.8049   28.7206    2.6297 C   0  0  0  0  0  0  0  0  0  0  0  0
  -85.8264   29.1947    1.5732 C   0  0  0  0  0  0  0  0  0  0  0  0
  -87.2292   32.5948   -2.6089 N   0  0  0  0  0  0  0  0  0  0  0  0
  -87.8277   32.1433   -1.4277 C   0  0  0  0  0  0  0  0  0  0  0  0
  -88.8179   32.6772   -0.9385 O   0  0  0  0  0  0  0  0  0  0  0  0
  -86.3712   32.0432   -2.9366 H   0  0  0  0  0  0  0  0  0  0  0  0
  -88.4720   35.7594   -5.1628 C   0  0  0  0  0  0  0  0  0  0  0  0
  -87.7321   36.0276   -4.0424 C   0  0  0  0  0  0  0  0  0  0  0  0
  -87.3013   35.0043   -3.1825 C   0  0  0  0  0  0  0  0  0  0  0  0
  -87.6030   33.6814   -3.4247 C   0  0  0  0  0  0  0  0  0  0  0  0
  -88.3629   33.4365   -4.5809 C   0  0  0  0  0  0  0  0  0  0  0  0
  -88.7804   34.4414   -5.4174 C   0  0  0  0  0  0  0  0  0  0  0  0
  -88.9384   36.8206   -6.0938 C   0  0  0  0  0  0  0  0  0  0  0  0
  -90.1235   36.5001   -6.6972 F   0  0  0  0  0  0  0  0  0  0  0  0
  -89.1817   38.0078   -5.3907 F   0  0  0  0  0  0  0  0  0  0  0  0
  -87.9133   37.1374   -7.1197 C   0  0  0  0  0  0  0  0  0  0  0  0
  -86.8312   36.4730   -7.1812 O   0  0  0  0  0  0  0  0  0  0  0  0
  -88.1103   38.1821   -8.0542 N   0  0  0  0  0  0  0  0  0  0  0  0
  -87.0654   38.4312   -9.0338 C   0  0  0  0  0  0  0  0  0  0  0  0
  -89.2741   39.0225   -8.1079 C   0  0  0  0  0  0  0  0  0  0  0  0
 36 37  2  0  0  0
 36 33  1  0  0  0
 33 34  1  0  0  0
 33 35  1  0  0  0
 33 27  1  0  0  0
 27 28  2  0  0  0
 28 29  1  0  0  0
 29 30  2  0  0  0
 30 23  1  0  0  0
 23 24  1  0  0  0
 24 25  2  0  0  0
  1 24  1  0  0  0
  1 15  1  0  0  0
 15 16  2  0  0  0
 15 17  1  0  0  0
 17 18  1  0  0  0
 18 19  1  0  0  0
 19 20  1  0  0  0
 20 21  1  0  0  0
 21 22  1  0  0  0
  1  2  1  0  0  0
  2  3  1  0  0  0
  3  5  1  0  0  0
  5  6  2  0  0  0
  6  7  1  0  0  0
  7  8  2  0  0  0
  8  9  1  0  0  0
  9 10  1  0  0  0
 10 11  1  0  0  0
 11 12  2  0  0  0
  9 13  2  0  0  0
  3  4  2  0  0  0
 30 31  1  0  0  0
 31 32  2  0  0  0
 36 38  1  0  0  0
 38 39  1  0  0  0
 38 40  1  0  0  0
 32 27  1  0  0  0
  4  1  1  0  0  0
 22 17  1  0  0  0
 13  5  1  0  0  0
 12  8  1  0  0  0
 23 26  1  0  0  0
 10 14  1  0  0  0
M  END
> <minimizedAffinity>
-10.45479

> <CNNscore>
0.1530506909

> <CNNaffinity>
6.5336580276

> <CNN_VS>
0.9999808669

> <CNNaffinity_variance>
0.1939821094

$$$$
[H]C1=C(c2c([H])c([H])c3nnn([H])c3c2[H])C([H])([H])[C@@]1(C(=O)N([H])c1c([H])c([H])c(C(F)(F)C(=O)N(C([H])([H])[H])C([H])([H])[H])c([H])c1[H])C(=O)N1C([H])([H])C([H])([H])C([H])([H])C([H])([H])C1([H])[H]


 40 44  0  0  0  0  0  0  0  0999 V2000
  -87.9161   28.7698   -0.9126 C   0  0  0  0  0  0  0  0  0  0  0  0
  -87.4306   28.9838   -2.2834 C   0  0  0  0  0  0  0  0  0  0  0  0
  -87.9882   30.3340   -2.1642 C   0  0  0  0  0  0  0  0  0  0  0  0
  -88.3944   30.1188   -0.9704 C   0  0  0  0  0  0  0  0  0  0  0  0
  -88.0760   31.5111   -3.0412 C   0  0  0  0  0  0  0  0  0  0  0  0
  -88.9963   31.5671   -4.0411 C   0  0  0  0  0  0  0  0  0  0  0  0
  -89.0931   32.6843   -4.8882 C   0  0  0  0  0  0  0  0  0  0  0  0
  -88.2213   33.7303   -4.6748 C   0  0  0  0  0  0  0  0  0  0  0  0
  -87.2961   33.6828   -3.6751 C   0  0  0  0  0  0  0  0  0  0  0  0
  -86.6063   34.8181   -3.7106 N   0  0  0  0  0  0  0  0  0  0  0  0
  -87.0970   35.5613   -4.7191 N   0  0  0  0  0  0  0  0  0  0  0  0
  -88.0880   34.9077   -5.3202 N   0  0  0  0  0  0  0  0  0  0  0  0
  -87.2156   32.5611   -2.8419 C   0  0  0  0  0  0  0  0  0  0  0  0
  -85.8264   35.1430   -3.1117 H   0  0  0  0  0  0  0  0  0  0  0  0
  -86.8732   28.4472    0.0791 C   0  0  0  0  0  0  0  0  0  0  0  0
  -86.7835   27.2179    0.4351 O   0  0  0  0  0  0  0  0  0  0  0  0
  -85.9766   29.3207    0.6705 N   0  0  0  0  0  0  0  0  0  0  0  0
  -84.9977   28.7788    1.6491 C   0  0  0  0  0  0  0  0  0  0  0  0
  -85.2062   29.4357    2.9930 C   0  0  0  0  0  0  0  0  0  0  0  0
  -85.0223   30.9178    2.8542 C   0  0  0  0  0  0  0  0  0  0  0  0
  -84.7523   31.2944    1.4351 C   0  0  0  0  0  0  0  0  0  0  0  0
  -85.8360   30.7459    0.4816 C   0  0  0  0  0  0  0  0  0  0  0  0
  -89.0910   26.7783   -1.9520 N   0  0  0  0  0  0  0  0  0  0  0  0
  -89.0412   27.7352   -0.9325 C   0  0  0  0  0  0  0  0  0  0  0  0
  -89.8732   27.7910   -0.0326 O   0  0  0  0  0  0  0  0  0  0  0  0
  -88.3055   26.8308   -2.6786 H   0  0  0  0  0  0  0  0  0  0  0  0
  -92.0374   23.8006   -2.6819 C   0  0  0  0  0  0  0  0  0  0  0  0
  -90.9154   23.4976   -1.9581 C   0  0  0  0  0  0  0  0  0  0  0  0
  -89.9273   24.4601   -1.6947 C   0  0  0  0  0  0  0  0  0  0  0  0
  -90.0393   25.7553   -2.1525 C   0  0  0  0  0  0  0  0  0  0  0  0
  -91.2004   26.0370   -2.8917 C   0  0  0  0  0  0  0  0  0  0  0  0
  -92.1626   25.0916   -3.1451 C   0  0  0  0  0  0  0  0  0  0  0  0
  -93.1021   22.8045   -2.9730 C   0  0  0  0  0  0  0  0  0  0  0  0
  -94.1990   23.3716   -3.5617 F   0  0  0  0  0  0  0  0  0  0  0  0
  -92.6346   21.8501   -3.8860 F   0  0  0  0  0  0  0  0  0  0  0  0
  -93.5052   22.0622   -1.7522 C   0  0  0  0  0  0  0  0  0  0  0  0
  -93.1494   20.8538   -1.5816 O   0  0  0  0  0  0  0  0  0  0  0  0
  -94.2923   22.6754   -0.7481 N   0  0  0  0  0  0  0  0  0  0  0  0
  -94.6438   21.8887    0.4226 C   0  0  0  0  0  0  0  0  0  0  0  0
  -94.7747   24.0275   -0.7994 C   0  0  0  0  0  0  0  0  0  0  0  0
 36 37  2  0  0  0
 36 33  1  0  0  0
 33 34  1  0  0  0
 33 35  1  0  0  0
 33 27  1  0  0  0
 27 28  2  0  0  0
 28 29  1  0  0  0
 29 30  2  0  0  0
 30 23  1  0  0  0
 23 24  1  0  0  0
 24 25  2  0  0  0
  1 24  1  0  0  0
  1 15  1  0  0  0
 15 16  2  0  0  0
 15 17  1  0  0  0
 17 18  1  0  0  0
 18 19  1  0  0  0
 19 20  1  0  0  0
 20 21  1  0  0  0
 21 22  1  0  0  0
  1  2  1  0  0  0
  2  3  1  0  0  0
  3  5  1  0  0  0
  5  6  2  0  0  0
  6  7  1  0  0  0
  7  8  2  0  0  0
  8  9  1  0  0  0
  9 10  1  0  0  0
 10 11  1  0  0  0
 11 12  2  0  0  0
  9 13  2  0  0  0
  3  4  2  0  0  0
 30 31  1  0  0  0
 31 32  2  0  0  0
 36 38  1  0  0  0
 38 39  1  0  0  0
 38 40  1  0  0  0
 32 27  1  0  0  0
  4  1  1  0  0  0
 22 17  1  0  0  0
 13  5  1  0  0  0
 12  8  1  0  0  0
 23 26  1  0  0  0
 10 14  1  0  0  0
M  END
> <minimizedAffinity>
-9.97824

> <CNNscore>
0.1445766240

> <CNNaffinity>
6.0768508911

> <CNN_VS>
0.8785706162

> <CNNaffinity_variance>
0.6553638577

$$$$
[H]C1=C(c2c([H])c([H])c3nnn([H])c3c2[H])C([H])([H])[C@@]1(C(=O)N([H])c1c([H])c([H])c(C(F)(F)C(=O)N(C([H])([H])[H])C([H])([H])[H])c([H])c1[H])C(=O)N1C([H])([H])C([H])([H])C([H])([H])C([H])([H])C1([H])[H]


 40 44  0  0  0  0  0  0  0  0999 V2000
  -87.2707   30.8569   -0.7291 C   0  0  0  0  0  0  0  0  0  0  0  0
  -88.3870   30.1782   -0.0555 C   0  0  0  0  0  0  0  0  0  0  0  0
  -88.1134   29.0518   -0.9524 C   0  0  0  0  0  0  0  0  0  0  0  0
  -87.1435   29.6667   -1.5160 C   0  0  0  0  0  0  0  0  0  0  0  0
  -88.6951   27.7180   -1.1648 C   0  0  0  0  0  0  0  0  0  0  0  0
  -89.5348   27.4830   -2.2087 C   0  0  0  0  0  0  0  0  0  0  0  0
  -90.0994   26.2146   -2.4256 C   0  0  0  0  0  0  0  0  0  0  0  0
  -89.7752   25.2070   -1.5427 C   0  0  0  0  0  0  0  0  0  0  0  0
  -88.9345   25.4335   -0.4941 C   0  0  0  0  0  0  0  0  0  0  0  0
  -88.8087   24.2921    0.1750 N   0  0  0  0  0  0  0  0  0  0  0  0
  -89.5614   23.3687   -0.4503 N   0  0  0  0  0  0  0  0  0  0  0  0
  -90.1605   23.9144   -1.5057 N   0  0  0  0  0  0  0  0  0  0  0  0
  -88.3822   26.7041   -0.2951 C   0  0  0  0  0  0  0  0  0  0  0  0
  -88.2567   24.0746    1.0236 H   0  0  0  0  0  0  0  0  0  0  0  0
  -86.1443   31.2316    0.1460 C   0  0  0  0  0  0  0  0  0  0  0  0
  -85.6634   32.4102   -0.0142 O   0  0  0  0  0  0  0  0  0  0  0  0
  -85.5456   30.4561    1.1242 N   0  0  0  0  0  0  0  0  0  0  0  0
  -84.4179   31.0367    1.8993 C   0  0  0  0  0  0  0  0  0  0  0  0
  -83.1748   30.2055    1.6874 C   0  0  0  0  0  0  0  0  0  0  0  0
  -83.4354   28.7996    2.1404 C   0  0  0  0  0  0  0  0  0  0  0  0
  -84.8461   28.6369    2.6007 C   0  0  0  0  0  0  0  0  0  0  0  0
  -85.8550   29.1045    1.5293 C   0  0  0  0  0  0  0  0  0  0  0  0
  -87.2231   32.3904   -2.7473 N   0  0  0  0  0  0  0  0  0  0  0  0
  -87.8104   32.0450   -1.5253 C   0  0  0  0  0  0  0  0  0  0  0  0
  -88.7570   32.6606   -1.0458 O   0  0  0  0  0  0  0  0  0  0  0  0
  -86.4047   31.7743   -3.0612 H   0  0  0  0  0  0  0  0  0  0  0  0
  -88.3984   35.4707   -5.4326 C   0  0  0  0  0  0  0  0  0  0  0  0
  -87.4010   35.6937   -4.5216 C   0  0  0  0  0  0  0  0  0  0  0  0
  -86.9859   34.6952   -3.6256 C   0  0  0  0  0  0  0  0  0  0  0  0
  -87.5628   33.4434   -3.6200 C   0  0  0  0  0  0  0  0  0  0  0  0
  -88.5828   33.2436   -4.5653 C   0  0  0  0  0  0  0  0  0  0  0  0
  -88.9834   34.2238   -5.4385 C   0  0  0  0  0  0  0  0  0  0  0  0
  -88.8561   36.5063   -6.3962 C   0  0  0  0  0  0  0  0  0  0  0  0
  -88.0179   36.6250   -7.4706 F   0  0  0  0  0  0  0  0  0  0  0  0
  -90.1037   36.1542   -6.9278 F   0  0  0  0  0  0  0  0  0  0  0  0
  -89.0321   37.8256   -5.7386 C   0  0  0  0  0  0  0  0  0  0  0  0
  -88.2463   38.7900   -6.0007 O   0  0  0  0  0  0  0  0  0  0  0  0
  -90.0744   38.0467   -4.8068 N   0  0  0  0  0  0  0  0  0  0  0  0
  -90.1888   39.3661   -4.2072 C   0  0  0  0  0  0  0  0  0  0  0  0
  -91.0352   37.0575   -4.4048 C   0  0  0  0  0  0  0  0  0  0  0  0
 36 37  2  0  0  0
 36 33  1  0  0  0
 33 34  1  0  0  0
 33 35  1  0  0  0
 33 27  1  0  0  0
 27 28  2  0  0  0
 28 29  1  0  0  0
 29 30  2  0  0  0
 30 23  1  0  0  0
 23 24  1  0  0  0
 24 25  2  0  0  0
  1 24  1  0  0  0
  1 15  1  0  0  0
 15 16  2  0  0  0
 15 17  1  0  0  0
 17 18  1  0  0  0
 18 19  1  0  0  0
 19 20  1  0  0  0
 20 21  1  0  0  0
 21 22  1  0  0  0
  1  2  1  0  0  0
  2  3  1  0  0  0
  3  5  1  0  0  0
  5  6  2  0  0  0
  6  7  1  0  0  0
  7  8  2  0  0  0
  8  9  1  0  0  0
  9 10  1  0  0  0
 10 11  1  0  0  0
 11 12  2  0  0  0
  9 13  2  0  0  0
  3  4  2  0  0  0
 30 31  1  0  0  0
 31 32  2  0  0  0
 36 38  1  0  0  0
 38 39  1  0  0  0
 38 40  1  0  0  0
 32 27  1  0  0  0
  4  1  1  0  0  0
 22 17  1  0  0  0
 13  5  1  0  0  0
 12  8  1  0  0  0
 23 26  1  0  0  0
 10 14  1  0  0  0
M  END
> <minimizedAffinity>
-10.10843

> <CNNscore>
0.1333990544

> <CNNaffinity>
6.4296751022

> <CNN_VS>
0.8577125669

> <CNNaffinity_variance>
0.2920369506

$$$$
[H]C1=C(c2c([H])c([H])c3nnn([H])c3c2[H])C([H])([H])[C@@]1(C(=O)N([H])c1c([H])c([H])c(C(F)(F)C(=O)N(C([H])([H])[H])C([H])([H])[H])c([H])c1[H])C(=O)N1C([H])([H])C([H])([H])C([H])([H])C([H])([H])C1([H])[H]


 40 44  0  0  0  0  0  0  0  0999 V2000
  -88.8769   30.8884   -2.1802 C   0  0  0  0  0  0  0  0  0  0  0  0
  -87.7009   30.0302   -2.3823 C   0  0  0  0  0  0  0  0  0  0  0  0
  -87.3929   30.2894   -0.9730 C   0  0  0  0  0  0  0  0  0  0  0  0
  -88.4276   31.0275   -0.8272 C   0  0  0  0  0  0  0  0  0  0  0  0
  -86.3268   29.8868   -0.0436 C   0  0  0  0  0  0  0  0  0  0  0  0
  -85.3258   30.7479    0.2824 C   0  0  0  0  0  0  0  0  0  0  0  0
  -84.2993   30.3789    1.1684 C   0  0  0  0  0  0  0  0  0  0  0  0
  -84.3365   29.1086    1.7022 C   0  0  0  0  0  0  0  0  0  0  0  0
  -85.3360   28.2393    1.3813 C   0  0  0  0  0  0  0  0  0  0  0  0
  -85.1115   27.1069    2.0396 N   0  0  0  0  0  0  0  0  0  0  0  0
  -83.9873   27.2710    2.7603 N   0  0  0  0  0  0  0  0  0  0  0  0
  -83.5001   28.4936    2.5639 N   0  0  0  0  0  0  0  0  0  0  0  0
  -86.3495   28.6259    0.4967 C   0  0  0  0  0  0  0  0  0  0  0  0
  -85.6514   26.2233    2.0487 H   0  0  0  0  0  0  0  0  0  0  0  0
  -90.1782   30.2347   -2.4135 C   0  0  0  0  0  0  0  0  0  0  0  0
  -91.1980   31.0077   -2.5055 O   0  0  0  0  0  0  0  0  0  0  0  0
  -90.4261   28.8792   -2.5465 N   0  0  0  0  0  0  0  0  0  0  0  0
  -91.8240   28.4328   -2.7835 C   0  0  0  0  0  0  0  0  0  0  0  0
  -92.2678   27.5317   -1.6557 C   0  0  0  0  0  0  0  0  0  0  0  0
  -91.3571   26.3420   -1.5841 C   0  0  0  0  0  0  0  0  0  0  0  0
  -90.2660   26.4398   -2.5982 C   0  0  0  0  0  0  0  0  0  0  0  0
  -89.4976   27.7743   -2.4848 C   0  0  0  0  0  0  0  0  0  0  0  0
  -89.1989   33.3825   -2.5011 N   0  0  0  0  0  0  0  0  0  0  0  0
  -88.7129   32.1687   -2.9992 C   0  0  0  0  0  0  0  0  0  0  0  0
  -88.1502   32.0740   -4.0852 O   0  0  0  0  0  0  0  0  0  0  0  0
  -89.6687   33.3364   -1.5393 H   0  0  0  0  0  0  0  0  0  0  0  0
  -88.8840   37.2360   -4.2707 C   0  0  0  0  0  0  0  0  0  0  0  0
  -90.0432   36.5167   -4.3866 C   0  0  0  0  0  0  0  0  0  0  0  0
  -90.1806   35.2443   -3.8086 C   0  0  0  0  0  0  0  0  0  0  0  0
  -89.1554   34.6585   -3.0975 C   0  0  0  0  0  0  0  0  0  0  0  0
  -87.9788   35.4195   -2.9951 C   0  0  0  0  0  0  0  0  0  0  0  0
  -87.8512   36.6628   -3.5622 C   0  0  0  0  0  0  0  0  0  0  0  0
  -88.7103   38.5865   -4.8678 C   0  0  0  0  0  0  0  0  0  0  0  0
  -89.3310   39.5626   -4.1375 F   0  0  0  0  0  0  0  0  0  0  0  0
  -87.3535   38.9353   -4.8881 F   0  0  0  0  0  0  0  0  0  0  0  0
  -89.1799   38.6267   -6.2755 C   0  0  0  0  0  0  0  0  0  0  0  0
  -90.2307   39.2694   -6.5899 O   0  0  0  0  0  0  0  0  0  0  0  0
  -88.4747   37.9550   -7.3027 N   0  0  0  0  0  0  0  0  0  0  0  0
  -88.9906   38.0435   -8.6589 C   0  0  0  0  0  0  0  0  0  0  0  0
  -87.2782   37.1853   -7.1045 C   0  0  0  0  0  0  0  0  0  0  0  0
 36 37  2  0  0  0
 36 33  1  0  0  0
 33 34  1  0  0  0
 33 35  1  0  0  0
 33 27  1  0  0  0
 27 28  2  0  0  0
 28 29  1  0  0  0
 29 30  2  0  0  0
 30 23  1  0  0  0
 23 24  1  0  0  0
 24 25  2  0  0  0
  1 24  1  0  0  0
  1 15  1  0  0  0
 15 16  2  0  0  0
 15 17  1  0  0  0
 17 18  1  0  0  0
 18 19  1  0  0  0
 19 20  1  0  0  0
 20 21  1  0  0  0
 21 22  1  0  0  0
  1  2  1  0  0  0
  2  3  1  0  0  0
  3  5  1  0  0  0
  5  6  2  0  0  0
  6  7  1  0  0  0
  7  8  2  0  0  0
  8  9  1  0  0  0
  9 10  1  0  0  0
 10 11  1  0  0  0
 11 12  2  0  0  0
  9 13  2  0  0  0
  3  4  2  0  0  0
 30 31  1  0  0  0
 31 32  2  0  0  0
 36 38  1  0  0  0
 38 39  1  0  0  0
 38 40  1  0  0  0
 32 27  1  0  0  0
  4  1  1  0  0  0
 22 17  1  0  0  0
 13  5  1  0  0  0
 12  8  1  0  0  0
 23 26  1  0  0  0
 10 14  1  0  0  0
M  END
> <minimizedAffinity>
-9.41500

> <CNNscore>
0.1301562935

> <CNNaffinity>
6.5724153519

> <CNN_VS>
0.8554412127

> <CNNaffinity_variance>
0.0981913358

$$$$
[H]C1=C(c2c([H])c([H])c3nnn([H])c3c2[H])C([H])([H])[C@@]1(C(=O)N([H])c1c([H])c([H])c(C(F)(F)C(=O)N(C([H])([H])[H])C([H])([H])[H])c([H])c1[H])C(=O)N1C([H])([H])C([H])([H])C([H])([H])C([H])([H])C1([H])[H]


 40 44  0  0  0  0  0  0  0  0999 V2000
  -89.2019   30.5438   -1.4748 C   0  0  0  0  0  0  0  0  0  0  0  0
  -87.8851   29.9844   -1.8120 C   0  0  0  0  0  0  0  0  0  0  0  0
  -87.8021   29.5899   -0.4029 C   0  0  0  0  0  0  0  0  0  0  0  0
  -88.9537   30.0819   -0.1418 C   0  0  0  0  0  0  0  0  0  0  0  0
  -86.8088   28.9005    0.4339 C   0  0  0  0  0  0  0  0  0  0  0  0
  -87.0717   27.6734    0.9583 C   0  0  0  0  0  0  0  0  0  0  0  0
  -86.1337   27.0012    1.7603 C   0  0  0  0  0  0  0  0  0  0  0  0
  -84.9294   27.6264    2.0022 C   0  0  0  0  0  0  0  0  0  0  0  0
  -84.6573   28.8559    1.4806 C   0  0  0  0  0  0  0  0  0  0  0  0
  -83.4368   29.2007    1.8778 N   0  0  0  0  0  0  0  0  0  0  0  0
  -82.9571   28.1981    2.6360 N   0  0  0  0  0  0  0  0  0  0  0  0
  -83.8608   27.2252    2.7218 N   0  0  0  0  0  0  0  0  0  0  0  0
  -85.6048   29.5091    0.6841 C   0  0  0  0  0  0  0  0  0  0  0  0
  -82.8904   30.0586    1.6835 H   0  0  0  0  0  0  0  0  0  0  0  0
  -90.3390   29.9586   -2.2096 C   0  0  0  0  0  0  0  0  0  0  0  0
  -91.2552   30.7732   -2.5878 O   0  0  0  0  0  0  0  0  0  0  0  0
  -90.5309   28.6280   -2.5402 N   0  0  0  0  0  0  0  0  0  0  0  0
  -91.7558   28.2533   -3.2943 C   0  0  0  0  0  0  0  0  0  0  0  0
  -92.5763   27.2814   -2.4801 C   0  0  0  0  0  0  0  0  0  0  0  0
  -91.7571   26.0574   -2.1961 C   0  0  0  0  0  0  0  0  0  0  0  0
  -90.3763   26.1965   -2.7461 C   0  0  0  0  0  0  0  0  0  0  0  0
  -89.6910   27.4888   -2.2516 C   0  0  0  0  0  0  0  0  0  0  0  0
  -88.8440   32.6554   -2.8312 N   0  0  0  0  0  0  0  0  0  0  0  0
  -89.1493   32.0664   -1.5994 C   0  0  0  0  0  0  0  0  0  0  0  0
  -89.3808   32.7222   -0.5888 O   0  0  0  0  0  0  0  0  0  0  0  0
  -88.6642   31.9763   -3.6402 H   0  0  0  0  0  0  0  0  0  0  0  0
  -88.7112   36.7917   -3.8079 C   0  0  0  0  0  0  0  0  0  0  0  0
  -87.5932   36.1587   -3.3347 C   0  0  0  0  0  0  0  0  0  0  0  0
  -87.6031   34.7927   -3.0091 C   0  0  0  0  0  0  0  0  0  0  0  0
  -88.7385   34.0241   -3.1497 C   0  0  0  0  0  0  0  0  0  0  0  0
  -89.8697   34.7001   -3.6371 C   0  0  0  0  0  0  0  0  0  0  0  0
  -89.8530   36.0354   -3.9539 C   0  0  0  0  0  0  0  0  0  0  0  0
  -88.7301   38.2349   -4.1649 C   0  0  0  0  0  0  0  0  0  0  0  0
  -89.8312   38.5748   -4.9018 F   0  0  0  0  0  0  0  0  0  0  0  0
  -88.7950   39.0189   -3.0055 F   0  0  0  0  0  0  0  0  0  0  0  0
  -87.4934   38.6375   -4.8807 C   0  0  0  0  0  0  0  0  0  0  0  0
  -86.6224   39.3665   -4.3097 O   0  0  0  0  0  0  0  0  0  0  0  0
  -87.2494   38.2229   -6.2119 N   0  0  0  0  0  0  0  0  0  0  0  0
  -86.0139   38.6509   -6.8472 C   0  0  0  0  0  0  0  0  0  0  0  0
  -88.1381   37.4050   -6.9895 C   0  0  0  0  0  0  0  0  0  0  0  0
 36 37  2  0  0  0
 36 33  1  0  0  0
 33 34  1  0  0  0
 33 35  1  0  0  0
 33 27  1  0  0  0
 27 28  2  0  0  0
 28 29  1  0  0  0
 29 30  2  0  0  0
 30 23  1  0  0  0
 23 24  1  0  0  0
 24 25  2  0  0  0
  1 24  1  0  0  0
  1 15  1  0  0  0
 15 16  2  0  0  0
 15 17  1  0  0  0
 17 18  1  0  0  0
 18 19  1  0  0  0
 19 20  1  0  0  0
 20 21  1  0  0  0
 21 22  1  0  0  0
  1  2  1  0  0  0
  2  3  1  0  0  0
  3  5  1  0  0  0
  5  6  2  0  0  0
  6  7  1  0  0  0
  7  8  2  0  0  0
  8  9  1  0  0  0
  9 10  1  0  0  0
 10 11  1  0  0  0
 11 12  2  0  0  0
  9 13  2  0  0  0
  3  4  2  0  0  0
 30 31  1  0  0  0
 31 32  2  0  0  0
 36 38  1  0  0  0
 38 39  1  0  0  0
 38 40  1  0  0  0
 32 27  1  0  0  0
  4  1  1  0  0  0
 22 17  1  0  0  0
 13  5  1  0  0  0
 12  8  1  0  0  0
 23 26  1  0  0  0
 10 14  1  0  0  0
M  END
> <minimizedAffinity>
-9.52836

> <CNNscore>
0.1254808009

> <CNNaffinity>
6.2882614136

> <CNN_VS>
0.7890560627

> <CNNaffinity_variance>
0.2016941309

$$$$
[H]c1nc(C(=O)N([H])[H])c(N([H])c2c([H])c([H])c(C3([H])C([H])([H])N(C([H])([H])[H])C3([H])[H])c([H])c2[H])nc1N1C([H])([H])C([H])([H])C([H])([H])[C@@]([H])(N([H])C(=O)N(C([H])([H])C([H])([H])[H])C([H])([H])C([H])([H])[H])C1([H])[H]


 39 42  0  0  0  0  0  0  0  0999 V2000
  -87.0589   33.1299   -2.2656 C   0  0  0  0  0  0  0  0  0  0  0  0
  -85.8729   33.8182   -2.1305 C   0  0  0  0  0  0  0  0  0  0  0  0
  -84.9578   33.4562   -1.2162 N   0  0  0  0  0  0  0  0  0  0  0  0
  -85.1454   32.3889   -0.3684 C   0  0  0  0  0  0  0  0  0  0  0  0
  -86.3240   31.7095   -0.5047 C   0  0  0  0  0  0  0  0  0  0  0  0
  -87.2468   32.0976   -1.4482 N   0  0  0  0  0  0  0  0  0  0  0  0
  -88.2860   34.6963   -5.3514 C   0  0  0  0  0  0  0  0  0  0  0  0
  -89.7641   34.8962   -4.9840 C   0  0  0  0  0  0  0  0  0  0  0  0
  -89.7713   35.2673   -3.5245 C   0  0  0  0  0  0  0  0  0  0  0  0
  -89.3112   34.0566   -2.7461 C   0  0  0  0  0  0  0  0  0  0  0  0
  -88.0472   33.5381   -3.2208 N   0  0  0  0  0  0  0  0  0  0  0  0
  -87.8103   33.4606   -4.6516 C   0  0  0  0  0  0  0  0  0  0  0  0
  -86.1430   37.8327   -5.6546 N   0  0  0  0  0  0  0  0  0  0  0  0
  -86.9192   36.6886   -5.9436 C   0  0  0  0  0  0  0  0  0  0  0  0
  -87.1036   36.3910   -7.1625 O   0  0  0  0  0  0  0  0  0  0  0  0
  -87.5089   35.8468   -4.9541 N   0  0  0  0  0  0  0  0  0  0  0  0
  -87.3592   36.0922   -3.9583 H   0  0  0  0  0  0  0  0  0  0  0  0
  -84.1765   38.9775   -6.4440 C   0  0  0  0  0  0  0  0  0  0  0  0
  -85.6200   38.6339   -6.7599 C   0  0  0  0  0  0  0  0  0  0  0  0
  -85.8521   38.2116   -4.2986 C   0  0  0  0  0  0  0  0  0  0  0  0
  -86.8324   39.2384   -3.8048 C   0  0  0  0  0  0  0  0  0  0  0  0
  -84.0658   32.1087    0.5521 C   0  0  0  0  0  0  0  0  0  0  0  0
  -82.7197   32.4249    0.1973 N   0  0  0  0  0  0  0  0  0  0  0  0
  -84.2092   31.5998    1.6645 O   0  0  0  0  0  0  0  0  0  0  0  0
  -82.5301   33.3006   -0.2939 H   0  0  0  0  0  0  0  0  0  0  0  0
  -81.9688   31.7706    0.4384 H   0  0  0  0  0  0  0  0  0  0  0  0
  -86.6334   30.6539    0.3779 N   0  0  0  0  0  0  0  0  0  0  0  0
  -86.4453   30.7531    1.3978 H   0  0  0  0  0  0  0  0  0  0  0  0
  -87.2233   29.4128   -0.0271 C   0  0  0  0  0  0  0  0  0  0  0  0
  -86.6962   28.6551   -1.0142 C   0  0  0  0  0  0  0  0  0  0  0  0
  -87.3316   27.4555   -1.3797 C   0  0  0  0  0  0  0  0  0  0  0  0
  -88.4728   27.0304   -0.7614 C   0  0  0  0  0  0  0  0  0  0  0  0
  -89.0024   27.8197    0.2493 C   0  0  0  0  0  0  0  0  0  0  0  0
  -88.3814   28.9975    0.6090 C   0  0  0  0  0  0  0  0  0  0  0  0
  -89.1276   25.7874   -1.1166 C   0  0  0  0  0  0  0  0  0  0  0  0
  -90.6534   25.8638   -0.9511 C   0  0  0  0  0  0  0  0  0  0  0  0
  -90.5753   24.4215   -0.6707 N   0  0  0  0  0  0  0  0  0  0  0  0
  -90.3610   23.7465   -1.9544 C   0  0  0  0  0  0  0  0  0  0  0  0
  -89.2688   24.7156   -0.0647 C   0  0  0  0  0  0  0  0  0  0  0  0
 18 19  1  0  0  0
 19 13  1  0  0  0
 13 20  1  0  0  0
 20 21  1  0  0  0
 13 14  1  0  0  0
 14 15  2  0  0  0
 14 16  1  0  0  0
 16  7  1  0  0  0
  7  8  1  0  0  0
  8  9  1  0  0  0
  9 10  1  0  0  0
 10 11  1  0  0  0
 11 12  1  0  0  0
 11  1  1  0  0  0
  1  2  2  0  0  0
  2  3  1  0  0  0
  3  4  2  0  0  0
  4 22  1  0  0  0
 22 23  1  0  0  0
 22 24  2  0  0  0
  4  5  1  0  0  0
  5 27  1  0  0  0
 27 29  1  0  0  0
 29 30  2  0  0  0
 30 31  1  0  0  0
 31 32  2  0  0  0
 32 33  1  0  0  0
 33 34  2  0  0  0
 32 35  1  0  0  0
 35 36  1  0  0  0
 36 37  1  0  0  0
 37 38  1  0  0  0
 37 39  1  0  0  0
  5  6  2  0  0  0
 12  7  1  0  0  0
  6  1  1  0  0  0
 34 29  1  0  0  0
 39 35  1  0  0  0
 16 17  1  0  0  0
 23 25  1  0  0  0
 23 26  1  0  0  0
 27 28  1  0  0  0
M  END
> <minimizedAffinity>
-7.78400

> <CNNscore>
0.5827487707

> <CNNaffinity>
7.1003580093

> <CNN_VS>
4.1377248764

> <CNNaffinity_variance>
0.0760543719

$$$$
[H]c1nc(C(=O)N([H])[H])c(N([H])c2c([H])c([H])c(C3([H])C([H])([H])N(C([H])([H])[H])C3([H])[H])c([H])c2[H])nc1N1C([H])([H])C([H])([H])C([H])([H])[C@@]([H])(N([H])C(=O)N(C([H])([H])C([H])([H])[H])C([H])([H])C([H])([H])[H])C1([H])[H]


 39 42  0  0  0  0  0  0  0  0999 V2000
  -86.1742   29.3356    0.6617 C   0  0  0  0  0  0  0  0  0  0  0  0
  -84.8077   29.1589    0.6445 C   0  0  0  0  0  0  0  0  0  0  0  0
  -83.9757   30.1855    0.4029 N   0  0  0  0  0  0  0  0  0  0  0  0
  -84.4304   31.4613    0.1609 C   0  0  0  0  0  0  0  0  0  0  0  0
  -85.7868   31.6321    0.1775 C   0  0  0  0  0  0  0  0  0  0  0  0
  -86.6202   30.5665    0.4274 N   0  0  0  0  0  0  0  0  0  0  0  0
  -88.5432   26.6954   -0.2862 C   0  0  0  0  0  0  0  0  0  0  0  0
  -89.2118   26.4319    1.0715 C   0  0  0  0  0  0  0  0  0  0  0  0
  -89.3267   27.7793    1.7340 C   0  0  0  0  0  0  0  0  0  0  0  0
  -87.9259   28.2519    2.0471 C   0  0  0  0  0  0  0  0  0  0  0  0
  -87.0606   28.2317    0.8884 N   0  0  0  0  0  0  0  0  0  0  0  0
  -87.1261   27.1004   -0.0201 C   0  0  0  0  0  0  0  0  0  0  0  0
  -90.9895   28.3213   -2.7137 N   0  0  0  0  0  0  0  0  0  0  0  0
  -90.2467   27.3831   -1.9633 C   0  0  0  0  0  0  0  0  0  0  0  0
  -90.4812   26.1519   -2.1566 O   0  0  0  0  0  0  0  0  0  0  0  0
  -89.2506   27.7304   -1.0028 N   0  0  0  0  0  0  0  0  0  0  0  0
  -89.0614   28.7370   -0.8442 H   0  0  0  0  0  0  0  0  0  0  0  0
  -93.3393   27.8337   -2.9179 C   0  0  0  0  0  0  0  0  0  0  0  0
  -92.0079   27.8393   -3.6452 C   0  0  0  0  0  0  0  0  0  0  0  0
  -90.7523   29.7333   -2.5840 C   0  0  0  0  0  0  0  0  0  0  0  0
  -90.9827   30.4398   -3.8905 C   0  0  0  0  0  0  0  0  0  0  0  0
  -83.4164   32.4670   -0.0663 C   0  0  0  0  0  0  0  0  0  0  0  0
  -82.1135   32.3126    0.4962 N   0  0  0  0  0  0  0  0  0  0  0  0
  -83.5824   33.4900   -0.7318 O   0  0  0  0  0  0  0  0  0  0  0  0
  -81.6812   31.3868    0.4966 H   0  0  0  0  0  0  0  0  0  0  0  0
  -81.6356   33.1289    0.8904 H   0  0  0  0  0  0  0  0  0  0  0  0
  -86.3414   32.8890   -0.1411 N   0  0  0  0  0  0  0  0  0  0  0  0
  -86.1253   33.7204    0.4485 H   0  0  0  0  0  0  0  0  0  0  0  0
  -87.1994   33.1293   -1.2629 C   0  0  0  0  0  0  0  0  0  0  0  0
  -88.5429   33.0104   -1.1783 C   0  0  0  0  0  0  0  0  0  0  0  0
  -89.3309   33.2410   -2.3195 C   0  0  0  0  0  0  0  0  0  0  0  0
  -88.7746   33.5850   -3.5184 C   0  0  0  0  0  0  0  0  0  0  0  0
  -87.3940   33.7020   -3.5896 C   0  0  0  0  0  0  0  0  0  0  0  0
  -86.6186   33.4754   -2.4717 C   0  0  0  0  0  0  0  0  0  0  0  0
  -89.5767   33.8425   -4.6975 C   0  0  0  0  0  0  0  0  0  0  0  0
  -88.9439   34.9015   -5.6137 C   0  0  0  0  0  0  0  0  0  0  0  0
  -90.3275   35.2266   -5.9940 N   0  0  0  0  0  0  0  0  0  0  0  0
  -90.7855   34.1636   -6.8939 C   0  0  0  0  0  0  0  0  0  0  0  0
  -90.6817   34.8658   -4.6137 C   0  0  0  0  0  0  0  0  0  0  0  0
 18 19  1  0  0  0
 19 13  1  0  0  0
 13 20  1  0  0  0
 20 21  1  0  0  0
 13 14  1  0  0  0
 14 15  2  0  0  0
 14 16  1  0  0  0
 16  7  1  0  0  0
  7  8  1  0  0  0
  8  9  1  0  0  0
  9 10  1  0  0  0
 10 11  1  0  0  0
 11 12  1  0  0  0
 11  1  1  0  0  0
  1  2  2  0  0  0
  2  3  1  0  0  0
  3  4  2  0  0  0
  4 22  1  0  0  0
 22 23  1  0  0  0
 22 24  2  0  0  0
  4  5  1  0  0  0
  5 27  1  0  0  0
 27 29  1  0  0  0
 29 30  2  0  0  0
 30 31  1  0  0  0
 31 32  2  0  0  0
 32 33  1  0  0  0
 33 34  2  0  0  0
 32 35  1  0  0  0
 35 36  1  0  0  0
 36 37  1  0  0  0
 37 38  1  0  0  0
 37 39  1  0  0  0
  5  6  2  0  0  0
 12  7  1  0  0  0
  6  1  1  0  0  0
 34 29  1  0  0  0
 39 35  1  0  0  0
 16 17  1  0  0  0
 23 25  1  0  0  0
 23 26  1  0  0  0
 27 28  1  0  0  0
M  END
> <minimizedAffinity>
-7.60110

> <CNNscore>
0.4473721087

> <CNNaffinity>
7.1709876060

> <CNN_VS>
3.2080998421

> <CNNaffinity_variance>
0.0597549006

$$$$
[H]c1nc(C(=O)N([H])[H])c(N([H])c2c([H])c([H])c(C3([H])C([H])([H])N(C([H])([H])[H])C3([H])[H])c([H])c2[H])nc1N1C([H])([H])C([H])([H])C([H])([H])[C@@]([H])(N([H])C(=O)N(C([H])([H])C([H])([H])[H])C([H])([H])C([H])([H])[H])C1([H])[H]


 39 42  0  0  0  0  0  0  0  0999 V2000
  -86.7867   32.4155   -1.7882 C   0  0  0  0  0  0  0  0  0  0  0  0
  -85.7744   33.3264   -1.5779 C   0  0  0  0  0  0  0  0  0  0  0  0
  -84.8648   33.1447   -0.6062 N   0  0  0  0  0  0  0  0  0  0  0  0
  -84.8870   32.0514    0.2289 C   0  0  0  0  0  0  0  0  0  0  0  0
  -85.8938   31.1509    0.0178 C   0  0  0  0  0  0  0  0  0  0  0  0
  -86.8143   31.3569   -0.9835 N   0  0  0  0  0  0  0  0  0  0  0  0
  -90.1850   32.6262   -3.1626 C   0  0  0  0  0  0  0  0  0  0  0  0
  -89.8806   32.4763   -4.6608 C   0  0  0  0  0  0  0  0  0  0  0  0
  -88.7559   31.4786   -4.7470 C   0  0  0  0  0  0  0  0  0  0  0  0
  -87.5314   32.1212   -4.1379 C   0  0  0  0  0  0  0  0  0  0  0  0
  -87.7745   32.6283   -2.8054 N   0  0  0  0  0  0  0  0  0  0  0  0
  -89.0195   33.3249   -2.5330 C   0  0  0  0  0  0  0  0  0  0  0  0
  -92.0064   29.4886   -1.9967 N   0  0  0  0  0  0  0  0  0  0  0  0
  -91.6993   30.7467   -2.5604 C   0  0  0  0  0  0  0  0  0  0  0  0
  -92.6427   31.3989   -3.1016 O   0  0  0  0  0  0  0  0  0  0  0  0
  -90.3977   31.3309   -2.5605 N   0  0  0  0  0  0  0  0  0  0  0  0
  -89.6271   30.7960   -2.1197 H   0  0  0  0  0  0  0  0  0  0  0  0
  -93.3727   27.8046   -3.0447 C   0  0  0  0  0  0  0  0  0  0  0  0
  -93.3751   28.9836   -2.0899 C   0  0  0  0  0  0  0  0  0  0  0  0
  -91.0020   28.7079   -1.3270 C   0  0  0  0  0  0  0  0  0  0  0  0
  -91.0390   28.9425    0.1572 C   0  0  0  0  0  0  0  0  0  0  0  0
  -83.8335   31.9828    1.2171 C   0  0  0  0  0  0  0  0  0  0  0  0
  -82.4780   32.2230    0.8392 N   0  0  0  0  0  0  0  0  0  0  0  0
  -84.0078   31.7251    2.4088 O   0  0  0  0  0  0  0  0  0  0  0  0
  -82.2747   32.9733    0.1760 H   0  0  0  0  0  0  0  0  0  0  0  0
  -81.7342   31.6406    1.2362 H   0  0  0  0  0  0  0  0  0  0  0  0
  -86.0396   30.0441    0.8797 N   0  0  0  0  0  0  0  0  0  0  0  0
  -85.6349   30.0720    1.8393 H   0  0  0  0  0  0  0  0  0  0  0  0
  -86.7402   28.8428    0.5358 C   0  0  0  0  0  0  0  0  0  0  0  0
  -86.8008   28.3851   -0.7344 C   0  0  0  0  0  0  0  0  0  0  0  0
  -87.5200   27.2095   -1.0123 C   0  0  0  0  0  0  0  0  0  0  0  0
  -88.1621   26.5115   -0.0296 C   0  0  0  0  0  0  0  0  0  0  0  0
  -88.0916   26.9947    1.2690 C   0  0  0  0  0  0  0  0  0  0  0  0
  -87.3875   28.1483    1.5442 C   0  0  0  0  0  0  0  0  0  0  0  0
  -88.8918   25.2891   -0.3001 C   0  0  0  0  0  0  0  0  0  0  0  0
  -89.6018   25.3227   -1.6625 C   0  0  0  0  0  0  0  0  0  0  0  0
  -90.5895   24.4304   -1.0356 N   0  0  0  0  0  0  0  0  0  0  0  0
  -89.9756   23.1015   -0.9545 C   0  0  0  0  0  0  0  0  0  0  0  0
  -90.3063   25.1612    0.2080 C   0  0  0  0  0  0  0  0  0  0  0  0
 18 19  1  0  0  0
 19 13  1  0  0  0
 13 20  1  0  0  0
 20 21  1  0  0  0
 13 14  1  0  0  0
 14 15  2  0  0  0
 14 16  1  0  0  0
 16  7  1  0  0  0
  7  8  1  0  0  0
  8  9  1  0  0  0
  9 10  1  0  0  0
 10 11  1  0  0  0
 11 12  1  0  0  0
 11  1  1  0  0  0
  1  2  2  0  0  0
  2  3  1  0  0  0
  3  4  2  0  0  0
  4 22  1  0  0  0
 22 23  1  0  0  0
 22 24  2  0  0  0
  4  5  1  0  0  0
  5 27  1  0  0  0
 27 29  1  0  0  0
 29 30  2  0  0  0
 30 31  1  0  0  0
 31 32  2  0  0  0
 32 33  1  0  0  0
 33 34  2  0  0  0
 32 35  1  0  0  0
 35 36  1  0  0  0
 36 37  1  0  0  0
 37 38  1  0  0  0
 37 39  1  0  0  0
  5  6  2  0  0  0
 12  7  1  0  0  0
  6  1  1  0  0  0
 34 29  1  0  0  0
 39 35  1  0  0  0
 16 17  1  0  0  0
 23 25  1  0  0  0
 23 26  1  0  0  0
 27 28  1  0  0  0
M  END
> <minimizedAffinity>
-7.81694

> <CNNscore>
0.2156828195

> <CNNaffinity>
6.8288750648

> <CNN_VS>
1.4728710651

> <CNNaffinity_variance>
0.2383880168

$$$$
[H]c1nc(C(=O)N([H])[H])c(N([H])c2c([H])c([H])c(C3([H])C([H])([H])N(C([H])([H])[H])C3([H])[H])c([H])c2[H])nc1N1C([H])([H])C([H])([H])C([H])([H])[C@@]([H])(N([H])C(=O)N(C([H])([H])C([H])([H])[H])C([H])([H])C([H])([H])[H])C1([H])[H]


 39 42  0  0  0  0  0  0  0  0999 V2000
  -87.1365   31.8597   -1.7728 C   0  0  0  0  0  0  0  0  0  0  0  0
  -86.6299   32.9767   -1.1448 C   0  0  0  0  0  0  0  0  0  0  0  0
  -85.7630   32.8690   -0.1243 N   0  0  0  0  0  0  0  0  0  0  0  0
  -85.3323   31.6519    0.3513 C   0  0  0  0  0  0  0  0  0  0  0  0
  -85.8383   30.5462   -0.2736 C   0  0  0  0  0  0  0  0  0  0  0  0
  -86.7248   30.6800   -1.3170 N   0  0  0  0  0  0  0  0  0  0  0  0
  -88.5472   33.2639   -4.8583 C   0  0  0  0  0  0  0  0  0  0  0  0
  -90.0005   32.7819   -4.7349 C   0  0  0  0  0  0  0  0  0  0  0  0
  -90.3353   32.8777   -3.2699 C   0  0  0  0  0  0  0  0  0  0  0  0
  -89.4959   31.8518   -2.5444 C   0  0  0  0  0  0  0  0  0  0  0  0
  -88.0859   31.9774   -2.8407 N   0  0  0  0  0  0  0  0  0  0  0  0
  -87.6739   32.2345   -4.2095 C   0  0  0  0  0  0  0  0  0  0  0  0
  -87.7530   36.9684   -4.4501 N   0  0  0  0  0  0  0  0  0  0  0  0
  -87.9400   35.6730   -4.9811 C   0  0  0  0  0  0  0  0  0  0  0  0
  -87.6929   35.4968   -6.2125 O   0  0  0  0  0  0  0  0  0  0  0  0
  -88.3884   34.5508   -4.2228 N   0  0  0  0  0  0  0  0  0  0  0  0
  -88.5920   34.6966   -3.2170 H   0  0  0  0  0  0  0  0  0  0  0  0
  -85.8040   38.0275   -5.3886 C   0  0  0  0  0  0  0  0  0  0  0  0
  -87.3203   38.0449   -5.3394 C   0  0  0  0  0  0  0  0  0  0  0  0
  -87.9696   37.2393   -3.0549 C   0  0  0  0  0  0  0  0  0  0  0  0
  -87.8703   38.7119   -2.7709 C   0  0  0  0  0  0  0  0  0  0  0  0
  -84.3857   31.6933    1.4438 C   0  0  0  0  0  0  0  0  0  0  0  0
  -83.0831   32.2423    1.2446 N   0  0  0  0  0  0  0  0  0  0  0  0
  -84.6123   31.2800    2.5818 O   0  0  0  0  0  0  0  0  0  0  0  0
  -82.9829   33.0845    0.6749 H   0  0  0  0  0  0  0  0  0  0  0  0
  -82.2730   31.7838    1.6731 H   0  0  0  0  0  0  0  0  0  0  0  0
  -85.5138   29.2589    0.2026 N   0  0  0  0  0  0  0  0  0  0  0  0
  -84.5241   28.9336    0.1970 H   0  0  0  0  0  0  0  0  0  0  0  0
  -86.4697   28.3307    0.7289 C   0  0  0  0  0  0  0  0  0  0  0  0
  -87.0648   27.3961   -0.0449 C   0  0  0  0  0  0  0  0  0  0  0  0
  -88.0094   26.5250    0.5257 C   0  0  0  0  0  0  0  0  0  0  0  0
  -88.3442   26.5956    1.8478 C   0  0  0  0  0  0  0  0  0  0  0  0
  -87.7255   27.5611    2.6289 C   0  0  0  0  0  0  0  0  0  0  0  0
  -86.7993   28.4174    2.0713 C   0  0  0  0  0  0  0  0  0  0  0  0
  -89.3030   25.6925    2.4519 C   0  0  0  0  0  0  0  0  0  0  0  0
  -90.5170   26.4339    3.0331 C   0  0  0  0  0  0  0  0  0  0  0  0
  -90.5776   25.3284    4.0021 N   0  0  0  0  0  0  0  0  0  0  0  0
  -91.1356   24.1705    3.2968 C   0  0  0  0  0  0  0  0  0  0  0  0
  -89.1122   25.2901    3.8930 C   0  0  0  0  0  0  0  0  0  0  0  0
 18 19  1  0  0  0
 19 13  1  0  0  0
 13 20  1  0  0  0
 20 21  1  0  0  0
 13 14  1  0  0  0
 14 15  2  0  0  0
 14 16  1  0  0  0
 16  7  1  0  0  0
  7  8  1  0  0  0
  8  9  1  0  0  0
  9 10  1  0  0  0
 10 11  1  0  0  0
 11 12  1  0  0  0
 11  1  1  0  0  0
  1  2  2  0  0  0
  2  3  1  0  0  0
  3  4  2  0  0  0
  4 22  1  0  0  0
 22 23  1  0  0  0
 22 24  2  0  0  0
  4  5  1  0  0  0
  5 27  1  0  0  0
 27 29  1  0  0  0
 29 30  2  0  0  0
 30 31  1  0  0  0
 31 32  2  0  0  0
 32 33  1  0  0  0
 33 34  2  0  0  0
 32 35  1  0  0  0
 35 36  1  0  0  0
 36 37  1  0  0  0
 37 38  1  0  0  0
 37 39  1  0  0  0
  5  6  2  0  0  0
 12  7  1  0  0  0
  6  1  1  0  0  0
 34 29  1  0  0  0
 39 35  1  0  0  0
 16 17  1  0  0  0
 23 25  1  0  0  0
 23 26  1  0  0  0
 27 28  1  0  0  0
M  END
> <minimizedAffinity>
-7.55201

> <CNNscore>
0.1974844933

> <CNNaffinity>
6.7926049232

> <CNN_VS>
1.3414341211

> <CNNaffinity_variance>
0.0490565374

$$$$
[H]c1nc(C(=O)N([H])[H])c(N([H])c2c([H])c([H])c(C3([H])C([H])([H])N(C([H])([H])[H])C3([H])[H])c([H])c2[H])nc1N1C([H])([H])C([H])([H])C([H])([H])[C@@]([H])(N([H])C(=O)N(C([H])([H])C([H])([H])[H])C([H])([H])C([H])([H])[H])C1([H])[H]


 39 42  0  0  0  0  0  0  0  0999 V2000
  -88.2279   29.8242   -0.7188 C   0  0  0  0  0  0  0  0  0  0  0  0
  -87.2161   29.2511    0.0204 C   0  0  0  0  0  0  0  0  0  0  0  0
  -86.1198   29.9493    0.3595 N   0  0  0  0  0  0  0  0  0  0  0  0
  -85.9412   31.2638   -0.0055 C   0  0  0  0  0  0  0  0  0  0  0  0
  -86.9467   31.8284   -0.7399 C   0  0  0  0  0  0  0  0  0  0  0  0
  -88.0608   31.0946   -1.0756 N   0  0  0  0  0  0  0  0  0  0  0  0
  -91.3731   28.0066   -0.1843 C   0  0  0  0  0  0  0  0  0  0  0  0
  -91.4251   27.1715   -1.4725 C   0  0  0  0  0  0  0  0  0  0  0  0
  -90.0000   26.7755   -1.7554 C   0  0  0  0  0  0  0  0  0  0  0  0
  -89.2408   28.0335   -2.1079 C   0  0  0  0  0  0  0  0  0  0  0  0
  -89.3821   29.0671   -1.1061 N   0  0  0  0  0  0  0  0  0  0  0  0
  -90.6867   29.2971   -0.5106 C   0  0  0  0  0  0  0  0  0  0  0  0
  -90.1038   27.0848    3.2885 N   0  0  0  0  0  0  0  0  0  0  0  0
  -90.7596   27.7168    2.2089 C   0  0  0  0  0  0  0  0  0  0  0  0
  -91.4805   28.7283    2.4648 O   0  0  0  0  0  0  0  0  0  0  0  0
  -90.6638   27.2914    0.8505 N   0  0  0  0  0  0  0  0  0  0  0  0
  -90.0760   26.4634    0.6430 H   0  0  0  0  0  0  0  0  0  0  0  0
  -89.8438   26.5331    5.6185 C   0  0  0  0  0  0  0  0  0  0  0  0
  -90.3086   27.5972    4.6422 C   0  0  0  0  0  0  0  0  0  0  0  0
  -89.2347   25.9595    3.0755 C   0  0  0  0  0  0  0  0  0  0  0  0
  -87.9457   26.3893    2.4330 C   0  0  0  0  0  0  0  0  0  0  0  0
  -84.7184   31.8901    0.4460 C   0  0  0  0  0  0  0  0  0  0  0  0
  -84.2168   31.6242    1.7557 N   0  0  0  0  0  0  0  0  0  0  0  0
  -84.0399   32.6664   -0.2278 O   0  0  0  0  0  0  0  0  0  0  0  0
  -84.2662   30.6710    2.1204 H   0  0  0  0  0  0  0  0  0  0  0  0
  -83.8186   32.3906    2.3073 H   0  0  0  0  0  0  0  0  0  0  0  0
  -86.8090   33.1454   -1.2254 N   0  0  0  0  0  0  0  0  0  0  0  0
  -86.1601   33.8108   -0.7548 H   0  0  0  0  0  0  0  0  0  0  0  0
  -87.5044   33.6590   -2.3676 C   0  0  0  0  0  0  0  0  0  0  0  0
  -86.8563   34.0513   -3.4868 C   0  0  0  0  0  0  0  0  0  0  0  0
  -87.5929   34.5649   -4.5685 C   0  0  0  0  0  0  0  0  0  0  0  0
  -88.9530   34.6786   -4.5213 C   0  0  0  0  0  0  0  0  0  0  0  0
  -89.6039   34.2727   -3.3652 C   0  0  0  0  0  0  0  0  0  0  0  0
  -88.8835   33.7694   -2.3022 C   0  0  0  0  0  0  0  0  0  0  0  0
  -89.7254   35.1898   -5.6358 C   0  0  0  0  0  0  0  0  0  0  0  0
  -91.1060   35.7055   -5.2010 C   0  0  0  0  0  0  0  0  0  0  0  0
  -91.5445   35.3143   -6.5499 N   0  0  0  0  0  0  0  0  0  0  0  0
  -91.0306   36.3264   -7.4778 C   0  0  0  0  0  0  0  0  0  0  0  0
  -90.5615   34.2268   -6.4412 C   0  0  0  0  0  0  0  0  0  0  0  0
 18 19  1  0  0  0
 19 13  1  0  0  0
 13 20  1  0  0  0
 20 21  1  0  0  0
 13 14  1  0  0  0
 14 15  2  0  0  0
 14 16  1  0  0  0
 16  7  1  0  0  0
  7  8  1  0  0  0
  8  9  1  0  0  0
  9 10  1  0  0  0
 10 11  1  0  0  0
 11 12  1  0  0  0
 11  1  1  0  0  0
  1  2  2  0  0  0
  2  3  1  0  0  0
  3  4  2  0  0  0
  4 22  1  0  0  0
 22 23  1  0  0  0
 22 24  2  0  0  0
  4  5  1  0  0  0
  5 27  1  0  0  0
 27 29  1  0  0  0
 29 30  2  0  0  0
 30 31  1  0  0  0
 31 32  2  0  0  0
 32 33  1  0  0  0
 33 34  2  0  0  0
 32 35  1  0  0  0
 35 36  1  0  0  0
 36 37  1  0  0  0
 37 38  1  0  0  0
 37 39  1  0  0  0
  5  6  2  0  0  0
 12  7  1  0  0  0
  6  1  1  0  0  0
 34 29  1  0  0  0
 39 35  1  0  0  0
 16 17  1  0  0  0
 23 25  1  0  0  0
 23 26  1  0  0  0
 27 28  1  0  0  0
M  END
> <minimizedAffinity>
-8.06257

> <CNNscore>
0.1740809679

> <CNNaffinity>
6.6683835983

> <CNN_VS>
1.1608387232

> <CNNaffinity_variance>
0.0437447727

$$$$
[H]c1nc(C(=O)N([H])[H])c(N([H])c2c([H])c([H])c(C3([H])C([H])([H])N(C([H])([H])[H])C3([H])[H])c([H])c2[H])nc1N1C([H])([H])C([H])([H])C([H])([H])[C@@]([H])(N([H])C(=O)N(C([H])([H])C([H])([H])[H])C([H])([H])C([H])([H])[H])C1([H])[H]


 39 42  0  0  0  0  0  0  0  0999 V2000
  -87.4948   28.6362   -0.0853 C   0  0  0  0  0  0  0  0  0  0  0  0
  -86.6377   27.9898    0.7785 C   0  0  0  0  0  0  0  0  0  0  0  0
  -85.6071   28.6349    1.3498 N   0  0  0  0  0  0  0  0  0  0  0  0
  -85.3466   29.9646    1.1109 C   0  0  0  0  0  0  0  0  0  0  0  0
  -86.1984   30.6019    0.2522 C   0  0  0  0  0  0  0  0  0  0  0  0
  -87.2476   29.9216   -0.3212 N   0  0  0  0  0  0  0  0  0  0  0  0
  -90.8109   27.0723   -0.2821 C   0  0  0  0  0  0  0  0  0  0  0  0
  -90.6101   26.1656   -1.5058 C   0  0  0  0  0  0  0  0  0  0  0  0
  -89.1963   25.6573   -1.4048 C   0  0  0  0  0  0  0  0  0  0  0  0
  -88.2742   26.8371   -1.6078 C   0  0  0  0  0  0  0  0  0  0  0  0
  -88.5747   27.9369   -0.7180 N   0  0  0  0  0  0  0  0  0  0  0  0
  -89.9630   28.2909   -0.4795 C   0  0  0  0  0  0  0  0  0  0  0  0
  -90.4009   26.3469    3.4363 N   0  0  0  0  0  0  0  0  0  0  0  0
  -90.7251   26.9500    2.2009 C   0  0  0  0  0  0  0  0  0  0  0  0
  -91.3078   28.0761    2.2270 O   0  0  0  0  0  0  0  0  0  0  0  0
  -90.4399   26.3749    0.9268 N   0  0  0  0  0  0  0  0  0  0  0  0
  -89.9656   25.4537    0.9069 H   0  0  0  0  0  0  0  0  0  0  0  0
  -89.7565   26.6520    5.7369 C   0  0  0  0  0  0  0  0  0  0  0  0
  -90.7766   27.0229    4.6770 C   0  0  0  0  0  0  0  0  0  0  0  0
  -89.7015   25.0921    3.4912 C   0  0  0  0  0  0  0  0  0  0  0  0
  -90.6659   23.9400    3.5352 C   0  0  0  0  0  0  0  0  0  0  0  0
  -84.2125   30.5273    1.8097 C   0  0  0  0  0  0  0  0  0  0  0  0
  -82.9439   29.8745    1.7621 N   0  0  0  0  0  0  0  0  0  0  0  0
  -84.2434   31.5658    2.4713 O   0  0  0  0  0  0  0  0  0  0  0  0
  -82.6313   29.4643    0.8800 H   0  0  0  0  0  0  0  0  0  0  0  0
  -82.3704   29.8266    2.6100 H   0  0  0  0  0  0  0  0  0  0  0  0
  -85.9569   31.9428   -0.1119 N   0  0  0  0  0  0  0  0  0  0  0  0
  -85.1213   32.4428    0.2585 H   0  0  0  0  0  0  0  0  0  0  0  0
  -86.7913   32.6993   -0.9973 C   0  0  0  0  0  0  0  0  0  0  0  0
  -88.1402   32.6369   -0.9418 C   0  0  0  0  0  0  0  0  0  0  0  0
  -88.9053   33.3889   -1.8504 C   0  0  0  0  0  0  0  0  0  0  0  0
  -88.3213   34.1866   -2.7927 C   0  0  0  0  0  0  0  0  0  0  0  0
  -86.9356   34.2393   -2.8377 C   0  0  0  0  0  0  0  0  0  0  0  0
  -86.1827   33.5017   -1.9481 C   0  0  0  0  0  0  0  0  0  0  0  0
  -89.0985   34.9802   -3.7233 C   0  0  0  0  0  0  0  0  0  0  0  0
  -90.2845   34.1977   -4.3085 C   0  0  0  0  0  0  0  0  0  0  0  0
  -90.1068   35.0493   -5.4950 N   0  0  0  0  0  0  0  0  0  0  0  0
  -90.6461   36.3705   -5.1587 C   0  0  0  0  0  0  0  0  0  0  0  0
  -88.6735   35.0245   -5.1699 C   0  0  0  0  0  0  0  0  0  0  0  0
 18 19  1  0  0  0
 19 13  1  0  0  0
 13 20  1  0  0  0
 20 21  1  0  0  0
 13 14  1  0  0  0
 14 15  2  0  0  0
 14 16  1  0  0  0
 16  7  1  0  0  0
  7  8  1  0  0  0
  8  9  1  0  0  0
  9 10  1  0  0  0
 10 11  1  0  0  0
 11 12  1  0  0  0
 11  1  1  0  0  0
  1  2  2  0  0  0
  2  3  1  0  0  0
  3  4  2  0  0  0
  4 22  1  0  0  0
 22 23  1  0  0  0
 22 24  2  0  0  0
  4  5  1  0  0  0
  5 27  1  0  0  0
 27 29  1  0  0  0
 29 30  2  0  0  0
 30 31  1  0  0  0
 31 32  2  0  0  0
 32 33  1  0  0  0
 33 34  2  0  0  0
 32 35  1  0  0  0
 35 36  1  0  0  0
 36 37  1  0  0  0
 37 38  1  0  0  0
 37 39  1  0  0  0
  5  6  2  0  0  0
 12  7  1  0  0  0
  6  1  1  0  0  0
 34 29  1  0  0  0
 39 35  1  0  0  0
 16 17  1  0  0  0
 23 25  1  0  0  0
 23 26  1  0  0  0
 27 28  1  0  0  0
M  END
> <minimizedAffinity>
-8.66429

> <CNNscore>
0.1355379671

> <CNNaffinity>
6.6632828712

> <CNN_VS>
0.9031277895

> <CNNaffinity_variance>
0.0764602423

$$$$
[H]c1nc(C(=O)N([H])[H])c(N([H])c2c([H])c([H])c(C3([H])C([H])([H])N(C([H])([H])[H])C3([H])[H])c([H])c2[H])nc1N1C([H])([H])C([H])([H])C([H])([H])[C@@]([H])(N([H])C(=O)N(C([H])([H])C([H])([H])[H])C([H])([H])C([H])([H])[H])C1([H])[H]


 39 42  0  0  0  0  0  0  0  0999 V2000
  -87.7824   28.1165    0.2108 C   0  0  0  0  0  0  0  0  0  0  0  0
  -86.9036   27.2637    0.8425 C   0  0  0  0  0  0  0  0  0  0  0  0
  -85.7590   27.7163    1.3806 N   0  0  0  0  0  0  0  0  0  0  0  0
  -85.3975   29.0430    1.3352 C   0  0  0  0  0  0  0  0  0  0  0  0
  -86.2714   29.8857    0.7064 C   0  0  0  0  0  0  0  0  0  0  0  0
  -87.4381   29.4004    0.1627 N   0  0  0  0  0  0  0  0  0  0  0  0
  -91.3601   27.3038    0.0651 C   0  0  0  0  0  0  0  0  0  0  0  0
  -91.3599   26.2882   -1.0873 C   0  0  0  0  0  0  0  0  0  0  0  0
  -90.0919   25.4923   -0.9248 C   0  0  0  0  0  0  0  0  0  0  0  0
  -88.9334   26.4244   -1.1942 C   0  0  0  0  0  0  0  0  0  0  0  0
  -88.9879   27.6255   -0.3902 N   0  0  0  0  0  0  0  0  0  0  0  0
  -90.2655   28.2903   -0.2027 C   0  0  0  0  0  0  0  0  0  0  0  0
  -90.6099   26.8225    3.7701 N   0  0  0  0  0  0  0  0  0  0  0  0
  -90.8311   27.3869    2.4944 C   0  0  0  0  0  0  0  0  0  0  0  0
  -90.7370   28.6464    2.3801 O   0  0  0  0  0  0  0  0  0  0  0  0
  -91.1534   26.6327    1.3270 N   0  0  0  0  0  0  0  0  0  0  0  0
  -91.2321   25.6037    1.4221 H   0  0  0  0  0  0  0  0  0  0  0  0
  -89.7653   26.8566    6.0254 C   0  0  0  0  0  0  0  0  0  0  0  0
  -90.3186   27.7067    4.8972 C   0  0  0  0  0  0  0  0  0  0  0  0
  -90.6555   25.3999    3.9726 C   0  0  0  0  0  0  0  0  0  0  0  0
  -89.3770   24.7509    3.5216 C   0  0  0  0  0  0  0  0  0  0  0  0
  -84.1446   29.3844    1.9716 C   0  0  0  0  0  0  0  0  0  0  0  0
  -83.3423   28.3661    2.5694 N   0  0  0  0  0  0  0  0  0  0  0  0
  -83.6863   30.5251    2.0472 O   0  0  0  0  0  0  0  0  0  0  0  0
  -83.2489   27.4667    2.0937 H   0  0  0  0  0  0  0  0  0  0  0  0
  -82.8764   28.5524    3.4629 H   0  0  0  0  0  0  0  0  0  0  0  0
  -85.9412   31.2470    0.5425 N   0  0  0  0  0  0  0  0  0  0  0  0
  -85.3418   31.7279    1.2460 H   0  0  0  0  0  0  0  0  0  0  0  0
  -86.3666   32.0509   -0.5643 C   0  0  0  0  0  0  0  0  0  0  0  0
  -85.8824   33.2946   -0.7770 C   0  0  0  0  0  0  0  0  0  0  0  0
  -86.3529   34.0423   -1.8706 C   0  0  0  0  0  0  0  0  0  0  0  0
  -87.2902   33.5448   -2.7303 C   0  0  0  0  0  0  0  0  0  0  0  0
  -87.7785   32.2671   -2.4981 C   0  0  0  0  0  0  0  0  0  0  0  0
  -87.3193   31.5318   -1.4253 C   0  0  0  0  0  0  0  0  0  0  0  0
  -87.7705   34.2984   -3.8711 C   0  0  0  0  0  0  0  0  0  0  0  0
  -87.2656   35.7497   -3.8661 C   0  0  0  0  0  0  0  0  0  0  0  0
  -88.5182   36.0620   -4.5718 N   0  0  0  0  0  0  0  0  0  0  0  0
  -88.3566   35.6033   -5.9549 C   0  0  0  0  0  0  0  0  0  0  0  0
  -89.1141   34.9775   -3.7783 C   0  0  0  0  0  0  0  0  0  0  0  0
 18 19  1  0  0  0
 19 13  1  0  0  0
 13 20  1  0  0  0
 20 21  1  0  0  0
 13 14  1  0  0  0
 14 15  2  0  0  0
 14 16  1  0  0  0
 16  7  1  0  0  0
  7  8  1  0  0  0
  8  9  1  0  0  0
  9 10  1  0  0  0
 10 11  1  0  0  0
 11 12  1  0  0  0
 11  1  1  0  0  0
  1  2  2  0  0  0
  2  3  1  0  0  0
  3  4  2  0  0  0
  4 22  1  0  0  0
 22 23  1  0  0  0
 22 24  2  0  0  0
  4  5  1  0  0  0
  5 27  1  0  0  0
 27 29  1  0  0  0
 29 30  2  0  0  0
 30 31  1  0  0  0
 31 32  2  0  0  0
 32 33  1  0  0  0
 33 34  2  0  0  0
 32 35  1  0  0  0
 35 36  1  0  0  0
 36 37  1  0  0  0
 37 38  1  0  0  0
 37 39  1  0  0  0
  5  6  2  0  0  0
 12  7  1  0  0  0
  6  1  1  0  0  0
 34 29  1  0  0  0
 39 35  1  0  0  0
 16 17  1  0  0  0
 23 25  1  0  0  0
 23 26  1  0  0  0
 27 28  1  0  0  0
M  END
> <minimizedAffinity>
-8.11329

> <CNNscore>
0.0976837501

> <CNNaffinity>
6.5911512375

> <CNN_VS>
0.6438483596

> <CNNaffinity_variance>
0.1401527673

$$$$
[H]c1nc(C(=O)N([H])[H])c(N([H])c2c([H])c([H])c(C3([H])C([H])([H])N(C([H])([H])[H])C3([H])[H])c([H])c2[H])nc1N1C([H])([H])C([H])([H])C([H])([H])[C@@]([H])(N([H])C(=O)N(C([H])([H])C([H])([H])[H])C([H])([H])C([H])([H])[H])C1([H])[H]


 39 42  0  0  0  0  0  0  0  0999 V2000
  -87.0172   28.2478    0.9020 C   0  0  0  0  0  0  0  0  0  0  0  0
  -86.5581   28.2609    2.2011 C   0  0  0  0  0  0  0  0  0  0  0  0
  -85.8054   29.2728    2.6637 N   0  0  0  0  0  0  0  0  0  0  0  0
  -85.4505   30.3457    1.8789 C   0  0  0  0  0  0  0  0  0  0  0  0
  -85.9068   30.3283    0.5903 C   0  0  0  0  0  0  0  0  0  0  0  0
  -86.6767   29.2819    0.1379 N   0  0  0  0  0  0  0  0  0  0  0  0
  -88.9892   26.4010   -1.5844 C   0  0  0  0  0  0  0  0  0  0  0  0
  -89.7424   25.4287   -0.6641 C   0  0  0  0  0  0  0  0  0  0  0  0
  -90.0625   26.2150    0.5796 C   0  0  0  0  0  0  0  0  0  0  0  0
  -88.7553   26.5153    1.2757 C   0  0  0  0  0  0  0  0  0  0  0  0
  -87.7938   27.1512    0.4022 N   0  0  0  0  0  0  0  0  0  0  0  0
  -87.6542   26.6697   -0.9610 C   0  0  0  0  0  0  0  0  0  0  0  0
  -91.4352   28.9172   -3.0700 N   0  0  0  0  0  0  0  0  0  0  0  0
  -90.6586   27.7624   -2.8284 C   0  0  0  0  0  0  0  0  0  0  0  0
  -90.7873   26.7851   -3.6263 O   0  0  0  0  0  0  0  0  0  0  0  0
  -89.7397   27.6241   -1.7458 N   0  0  0  0  0  0  0  0  0  0  0  0
  -89.6369   28.4228   -1.0933 H   0  0  0  0  0  0  0  0  0  0  0  0
  -93.7455   28.5815   -3.6623 C   0  0  0  0  0  0  0  0  0  0  0  0
  -92.3672   28.9235   -4.1962 C   0  0  0  0  0  0  0  0  0  0  0  0
  -91.3148   30.0828   -2.2371 C   0  0  0  0  0  0  0  0  0  0  0  0
  -91.3622   31.3395   -3.0601 C   0  0  0  0  0  0  0  0  0  0  0  0
  -84.6510   31.3667    2.5191 C   0  0  0  0  0  0  0  0  0  0  0  0
  -85.0255   31.8737    3.7998 N   0  0  0  0  0  0  0  0  0  0  0  0
  -83.6300   31.8598    2.0378 O   0  0  0  0  0  0  0  0  0  0  0  0
  -85.3773   31.2241    4.5057 H   0  0  0  0  0  0  0  0  0  0  0  0
  -84.9374   32.8769    3.9893 H   0  0  0  0  0  0  0  0  0  0  0  0
  -85.5224   31.3472   -0.3058 N   0  0  0  0  0  0  0  0  0  0  0  0
  -84.5131   31.5266   -0.4915 H   0  0  0  0  0  0  0  0  0  0  0  0
  -86.4431   32.1787   -1.0223 C   0  0  0  0  0  0  0  0  0  0  0  0
  -86.0449   32.9954   -2.0227 C   0  0  0  0  0  0  0  0  0  0  0  0
  -86.9931   33.8019   -2.6760 C   0  0  0  0  0  0  0  0  0  0  0  0
  -88.3135   33.7830   -2.3276 C   0  0  0  0  0  0  0  0  0  0  0  0
  -88.7066   32.9402   -1.2980 C   0  0  0  0  0  0  0  0  0  0  0  0
  -87.7781   32.1487   -0.6548 C   0  0  0  0  0  0  0  0  0  0  0  0
  -89.3036   34.5961   -3.0047 C   0  0  0  0  0  0  0  0  0  0  0  0
  -89.3847   34.2857   -4.5075 C   0  0  0  0  0  0  0  0  0  0  0  0
  -89.7860   35.6935   -4.6550 N   0  0  0  0  0  0  0  0  0  0  0  0
  -91.1785   35.7913   -4.2067 C   0  0  0  0  0  0  0  0  0  0  0  0
  -88.8996   35.9578   -3.5126 C   0  0  0  0  0  0  0  0  0  0  0  0
 18 19  1  0  0  0
 19 13  1  0  0  0
 13 20  1  0  0  0
 20 21  1  0  0  0
 13 14  1  0  0  0
 14 15  2  0  0  0
 14 16  1  0  0  0
 16  7  1  0  0  0
  7  8  1  0  0  0
  8  9  1  0  0  0
  9 10  1  0  0  0
 10 11  1  0  0  0
 11 12  1  0  0  0
 11  1  1  0  0  0
  1  2  2  0  0  0
  2  3  1  0  0  0
  3  4  2  0  0  0
  4 22  1  0  0  0
 22 23  1  0  0  0
 22 24  2  0  0  0
  4  5  1  0  0  0
  5 27  1  0  0  0
 27 29  1  0  0  0
 29 30  2  0  0  0
 30 31  1  0  0  0
 31 32  2  0  0  0
 32 33  1  0  0  0
 33 34  2  0  0  0
 32 35  1  0  0  0
 35 36  1  0  0  0
 36 37  1  0  0  0
 37 38  1  0  0  0
 37 39  1  0  0  0
  5  6  2  0  0  0
 12  7  1  0  0  0
  6  1  1  0  0  0
 34 29  1  0  0  0
 39 35  1  0  0  0
 16 17  1  0  0  0
 23 25  1  0  0  0
 23 26  1  0  0  0
 27 28  1  0  0  0
M  END
> <minimizedAffinity>
-7.66855

> <CNNscore>
0.0820541233

> <CNNaffinity>
6.4685797691

> <CNN_VS>
0.5307736397

> <CNNaffinity_variance>
0.1959324628

$$$$
[H]c1nc(C(=O)N([H])[H])c(N([H])c2c([H])c([H])c(C3([H])C([H])([H])N(C([H])([H])[H])C3([H])[H])c([H])c2[H])nc1N1C([H])([H])C([H])([H])C([H])([H])[C@@]([H])(N([H])C(=O)N(C([H])([H])C([H])([H])[H])C([H])([H])C([H])([H])[H])C1([H])[H]


 39 42  0  0  0  0  0  0  0  0999 V2000
  -87.2232   27.7981    1.4187 C   0  0  0  0  0  0  0  0  0  0  0  0
  -86.1292   26.9856    1.6234 C   0  0  0  0  0  0  0  0  0  0  0  0
  -84.8942   27.4989    1.7487 N   0  0  0  0  0  0  0  0  0  0  0  0
  -84.6478   28.8509    1.6815 C   0  0  0  0  0  0  0  0  0  0  0  0
  -85.7356   29.6534    1.4770 C   0  0  0  0  0  0  0  0  0  0  0  0
  -86.9915   29.1061    1.3518 N   0  0  0  0  0  0  0  0  0  0  0  0
  -90.3286   27.0267   -0.3821 C   0  0  0  0  0  0  0  0  0  0  0  0
  -91.2630   26.7365    0.8022 C   0  0  0  0  0  0  0  0  0  0  0  0
  -90.8691   27.7148    1.8771 C   0  0  0  0  0  0  0  0  0  0  0  0
  -89.4811   27.3419    2.3438 C   0  0  0  0  0  0  0  0  0  0  0  0
  -88.5356   27.2450    1.2537 N   0  0  0  0  0  0  0  0  0  0  0  0
  -88.9487   26.6035    0.0178 C   0  0  0  0  0  0  0  0  0  0  0  0
  -90.1347   30.2001   -2.4827 N   0  0  0  0  0  0  0  0  0  0  0  0
  -90.1247   28.8528   -2.0588 C   0  0  0  0  0  0  0  0  0  0  0  0
  -89.8896   27.9605   -2.9287 O   0  0  0  0  0  0  0  0  0  0  0  0
  -90.3619   28.4310   -0.7166 N   0  0  0  0  0  0  0  0  0  0  0  0
  -90.5560   29.1611   -0.0071 H   0  0  0  0  0  0  0  0  0  0  0  0
  -91.1678   31.1522   -4.4390 C   0  0  0  0  0  0  0  0  0  0  0  0
  -89.9096   30.5020   -3.8952 C   0  0  0  0  0  0  0  0  0  0  0  0
  -90.3502   31.2724   -1.5495 C   0  0  0  0  0  0  0  0  0  0  0  0
  -89.7314   30.9580   -0.2164 C   0  0  0  0  0  0  0  0  0  0  0  0
  -83.2701   29.2568    1.8506 C   0  0  0  0  0  0  0  0  0  0  0  0
  -82.3038   28.3290    2.3436 N   0  0  0  0  0  0  0  0  0  0  0  0
  -82.8356   30.3807    1.5957 O   0  0  0  0  0  0  0  0  0  0  0  0
  -82.3363   27.3609    2.0183 H   0  0  0  0  0  0  0  0  0  0  0  0
  -81.5971   28.6470    3.0142 H   0  0  0  0  0  0  0  0  0  0  0  0
  -85.5633   31.0436    1.3137 N   0  0  0  0  0  0  0  0  0  0  0  0
  -85.0887   31.6021    2.0541 H   0  0  0  0  0  0  0  0  0  0  0  0
  -85.9906   31.7776    0.1601 C   0  0  0  0  0  0  0  0  0  0  0  0
  -85.8814   33.1225    0.0832 C   0  0  0  0  0  0  0  0  0  0  0  0
  -86.3360   33.7886   -1.0683 C   0  0  0  0  0  0  0  0  0  0  0  0
  -86.8872   33.1117   -2.1187 C   0  0  0  0  0  0  0  0  0  0  0  0
  -86.9935   31.7316   -2.0243 C   0  0  0  0  0  0  0  0  0  0  0  0
  -86.5491   31.0758   -0.8953 C   0  0  0  0  0  0  0  0  0  0  0  0
  -87.3434   33.7845   -3.3183 C   0  0  0  0  0  0  0  0  0  0  0  0
  -87.3969   35.3106   -3.1468 C   0  0  0  0  0  0  0  0  0  0  0  0
  -88.4947   35.2623   -4.1251 N   0  0  0  0  0  0  0  0  0  0  0  0
  -87.8865   35.0443   -5.4412 C   0  0  0  0  0  0  0  0  0  0  0  0
  -88.8262   33.9583   -3.5332 C   0  0  0  0  0  0  0  0  0  0  0  0
 18 19  1  0  0  0
 19 13  1  0  0  0
 13 20  1  0  0  0
 20 21  1  0  0  0
 13 14  1  0  0  0
 14 15  2  0  0  0
 14 16  1  0  0  0
 16  7  1  0  0  0
  7  8  1  0  0  0
  8  9  1  0  0  0
  9 10  1  0  0  0
 10 11  1  0  0  0
 11 12  1  0  0  0
 11  1  1  0  0  0
  1  2  2  0  0  0
  2  3  1  0  0  0
  3  4  2  0  0  0
  4 22  1  0  0  0
 22 23  1  0  0  0
 22 24  2  0  0  0
  4  5  1  0  0  0
  5 27  1  0  0  0
 27 29  1  0  0  0
 29 30  2  0  0  0
 30 31  1  0  0  0
 31 32  2  0  0  0
 32 33  1  0  0  0
 33 34  2  0  0  0
 32 35  1  0  0  0
 35 36  1  0  0  0
 36 37  1  0  0  0
 37 38  1  0  0  0
 37 39  1  0  0  0
  5  6  2  0  0  0
 12  7  1  0  0  0
  6  1  1  0  0  0
 34 29  1  0  0  0
 39 35  1  0  0  0
 16 17  1  0  0  0
 23 25  1  0  0  0
 23 26  1  0  0  0
 27 28  1  0  0  0
M  END
> <minimizedAffinity>
-7.68864

> <CNNscore>
0.0749112666

> <CNNaffinity>
6.6161460876

> <CNN_VS>
0.4956238866

> <CNNaffinity_variance>
0.3167000413

$$$$
[H]c1nc(OC([H])([H])C([H])(F)F)c([H])c(Cl)c1C#Cc1c([H])c(C(=O)N([H])[H])c(N([H])c2c([H])c([H])c([H])c(N3C(=O)C([H])([H])C([H])([H])C3([H])[H])c2C([H])([H])[H])c([H])c1C([H])([H])[H]


 41 44  0  0  0  0  0  0  0  0999 V2000
  -87.4031   34.2684   -3.3692 C   0  0  0  0  0  0  0  0  0  0  0  0
  -86.5642   33.6866   -2.4054 C   0  0  0  0  0  0  0  0  0  0  0  0
  -87.0251   32.6629   -1.6063 C   0  0  0  0  0  0  0  0  0  0  0  0
  -86.1161   32.0617   -0.5941 C   0  0  0  0  0  0  0  0  0  0  0  0
  -88.2983   32.1720   -1.7078 C   0  0  0  0  0  0  0  0  0  0  0  0
  -89.1299   32.7156   -2.6295 C   0  0  0  0  0  0  0  0  0  0  0  0
  -88.6912   33.7663   -3.4685 C   0  0  0  0  0  0  0  0  0  0  0  0
  -89.6012   34.2496   -4.4656 C   0  0  0  0  0  0  0  0  0  0  0  0
  -90.7509   35.0204   -4.0542 N   0  0  0  0  0  0  0  0  0  0  0  0
  -89.4851   34.0604   -5.6717 O   0  0  0  0  0  0  0  0  0  0  0  0
  -90.6299   35.8946   -3.5366 H   0  0  0  0  0  0  0  0  0  0  0  0
  -91.7107   34.6877   -4.2835 H   0  0  0  0  0  0  0  0  0  0  0  0
  -86.9596   35.4046   -4.0876 N   0  0  0  0  0  0  0  0  0  0  0  0
  -86.0727   35.3243   -4.6737 H   0  0  0  0  0  0  0  0  0  0  0  0
  -87.3011   36.4855   -6.6587 C   0  0  0  0  0  0  0  0  0  0  0  0
  -87.7434   37.2378   -5.4275 C   0  0  0  0  0  0  0  0  0  0  0  0
  -87.5995   36.6715   -4.1558 C   0  0  0  0  0  0  0  0  0  0  0  0
  -88.0159   37.3871   -3.0543 C   0  0  0  0  0  0  0  0  0  0  0  0
  -88.5683   38.6395   -3.1916 C   0  0  0  0  0  0  0  0  0  0  0  0
  -88.7071   39.1872   -4.4353 C   0  0  0  0  0  0  0  0  0  0  0  0
  -88.2956   38.4876   -5.5443 C   0  0  0  0  0  0  0  0  0  0  0  0
  -88.4391   39.0568   -6.8418 N   0  0  0  0  0  0  0  0  0  0  0  0
  -87.4569   39.9327   -7.4587 C   0  0  0  0  0  0  0  0  0  0  0  0
  -88.0528   40.2845   -8.8053 C   0  0  0  0  0  0  0  0  0  0  0  0
  -89.0405   39.1867   -9.0810 C   0  0  0  0  0  0  0  0  0  0  0  0
  -89.5419   38.8625   -7.7198 C   0  0  0  0  0  0  0  0  0  0  0  0
  -90.7088   38.4865   -7.3779 O   0  0  0  0  0  0  0  0  0  0  0  0
  -88.7362   31.1049   -0.8541 C   0  0  0  0  0  0  0  0  0  0  0  0
  -89.0861   30.2097   -0.1256 C   0  0  0  0  0  0  0  0  0  0  0  0
  -89.4997   29.1420    0.7737 C   0  0  0  0  0  0  0  0  0  0  0  0
  -90.8107   29.0163    1.1765 C   0  0  0  0  0  0  0  0  0  0  0  0
  -91.2396   28.0423    2.0093 N   0  0  0  0  0  0  0  0  0  0  0  0
  -90.3451   27.1556    2.4653 C   0  0  0  0  0  0  0  0  0  0  0  0
  -89.0191   27.2238    2.1021 C   0  0  0  0  0  0  0  0  0  0  0  0
  -88.5921   28.2247    1.2495 C   0  0  0  0  0  0  0  0  0  0  0  0
  -86.9271   28.3784    0.7426 Cl  0  0  0  0  0  0  0  0  0  0  0  0
  -90.7662   26.1587    3.3134 O   0  0  0  0  0  0  0  0  0  0  0  0
  -89.8980   25.2335    3.9257 C   0  0  0  0  0  0  0  0  0  0  0  0
  -90.2307   23.8446    3.3685 C   0  0  0  0  0  0  0  0  0  0  0  0
  -91.6091   23.7229    3.4308 F   0  0  0  0  0  0  0  0  0  0  0  0
  -89.7060   22.8965    4.2367 F   0  0  0  0  0  0  0  0  0  0  0  0
 15 16  1  0  0  0
 16 17  2  0  0  0
 17 13  1  0  0  0
 13  1  1  0  0  0
  1  2  2  0  0  0
  2  3  1  0  0  0
  3  4  1  0  0  0
  3  5  2  0  0  0
  5  6  1  0  0  0
  6  7  2  0  0  0
  7  8  1  0  0  0
  8  9  1  0  0  0
  8 10  2  0  0  0
  5 28  1  0  0  0
 28 29  3  0  0  0
 29 30  1  0  0  0
 30 31  2  0  0  0
 31 32  1  0  0  0
 32 33  2  0  0  0
 33 37  1  0  0  0
 37 38  1  0  0  0
 38 39  1  0  0  0
 39 40  1  0  0  0
 39 41  1  0  0  0
 33 34  1  0  0  0
 34 35  2  0  0  0
 35 36  1  0  0  0
 17 18  1  0  0  0
 18 19  2  0  0  0
 19 20  1  0  0  0
 20 21  2  0  0  0
 21 22  1  0  0  0
 22 23  1  0  0  0
 23 24  1  0  0  0
 24 25  1  0  0  0
 25 26  1  0  0  0
 26 27  2  0  0  0
 21 16  1  0  0  0
 26 22  1  0  0  0
  7  1  1  0  0  0
 35 30  1  0  0  0
 13 14  1  0  0  0
  9 11  1  0  0  0
  9 12  1  0  0  0
M  END
> <minimizedAffinity>
-7.63052

> <CNNscore>
0.1052774265

> <CNNaffinity>
6.2127547264

> <CNN_VS>
0.6540628076

> <CNNaffinity_variance>
0.2023012191

$$$$
[H]c1nc(OC([H])([H])C([H])(F)F)c([H])c(Cl)c1C#Cc1c([H])c(C(=O)N([H])[H])c(N([H])c2c([H])c([H])c([H])c(N3C(=O)C([H])([H])C([H])([H])C3([H])[H])c2C([H])([H])[H])c([H])c1C([H])([H])[H]


 41 44  0  0  0  0  0  0  0  0999 V2000
  -92.8763   24.5110   -1.3652 C   0  0  0  0  0  0  0  0  0  0  0  0
  -92.2530   25.4899   -2.1555 C   0  0  0  0  0  0  0  0  0  0  0  0
  -91.0925   26.0971   -1.7269 C   0  0  0  0  0  0  0  0  0  0  0  0
  -90.4503   27.1297   -2.5835 C   0  0  0  0  0  0  0  0  0  0  0  0
  -90.5012   25.7850   -0.5332 C   0  0  0  0  0  0  0  0  0  0  0  0
  -91.0818   24.8439    0.2501 C   0  0  0  0  0  0  0  0  0  0  0  0
  -92.2721   24.1979   -0.1577 C   0  0  0  0  0  0  0  0  0  0  0  0
  -92.7960   23.1657    0.6885 C   0  0  0  0  0  0  0  0  0  0  0  0
  -92.0095   21.9765    0.9169 N   0  0  0  0  0  0  0  0  0  0  0  0
  -93.8848   23.2058    1.2514 O   0  0  0  0  0  0  0  0  0  0  0  0
  -91.0783   22.0441    1.3352 H   0  0  0  0  0  0  0  0  0  0  0  0
  -92.3886   21.0425    0.6552 H   0  0  0  0  0  0  0  0  0  0  0  0
  -94.1352   23.9950   -1.7557 N   0  0  0  0  0  0  0  0  0  0  0  0
  -94.8740   23.8280   -1.0055 H   0  0  0  0  0  0  0  0  0  0  0  0
  -94.5926   21.2845   -2.3384 C   0  0  0  0  0  0  0  0  0  0  0  0
  -94.7574   22.3512   -3.3931 C   0  0  0  0  0  0  0  0  0  0  0  0
  -94.5610   23.7008   -3.0791 C   0  0  0  0  0  0  0  0  0  0  0  0
  -94.7217   24.6473   -4.0675 C   0  0  0  0  0  0  0  0  0  0  0  0
  -95.0723   24.2822   -5.3467 C   0  0  0  0  0  0  0  0  0  0  0  0
  -95.2636   22.9635   -5.6474 C   0  0  0  0  0  0  0  0  0  0  0  0
  -95.1059   22.0064   -4.6739 C   0  0  0  0  0  0  0  0  0  0  0  0
  -95.3045   20.6312   -4.9853 N   0  0  0  0  0  0  0  0  0  0  0  0
  -96.6103   20.0175   -5.1612 C   0  0  0  0  0  0  0  0  0  0  0  0
  -96.3109   18.5638   -5.4598 C   0  0  0  0  0  0  0  0  0  0  0  0
  -94.8944   18.5637   -5.9602 C   0  0  0  0  0  0  0  0  0  0  0  0
  -94.2791   19.6619   -5.1696 C   0  0  0  0  0  0  0  0  0  0  0  0
  -93.0866   19.7472   -4.7333 O   0  0  0  0  0  0  0  0  0  0  0  0
  -89.2928   26.4435   -0.1264 C   0  0  0  0  0  0  0  0  0  0  0  0
  -88.2780   27.0087    0.1979 C   0  0  0  0  0  0  0  0  0  0  0  0
  -87.0630   27.7131    0.5819 C   0  0  0  0  0  0  0  0  0  0  0  0
  -86.3659   27.3661    1.7179 C   0  0  0  0  0  0  0  0  0  0  0  0
  -85.2349   27.9913    2.1129 N   0  0  0  0  0  0  0  0  0  0  0  0
  -84.7692   28.9983    1.3623 C   0  0  0  0  0  0  0  0  0  0  0  0
  -85.4172   29.3959    0.2148 C   0  0  0  0  0  0  0  0  0  0  0  0
  -86.5734   28.7487   -0.1794 C   0  0  0  0  0  0  0  0  0  0  0  0
  -87.4529   29.1943   -1.6218 Cl  0  0  0  0  0  0  0  0  0  0  0  0
  -83.6194   29.6442    1.7512 O   0  0  0  0  0  0  0  0  0  0  0  0
  -82.8518   30.4588    0.8956 C   0  0  0  0  0  0  0  0  0  0  0  0
  -83.1427   31.9193    1.2595 C   0  0  0  0  0  0  0  0  0  0  0  0
  -83.9087   31.8852    2.4131 F   0  0  0  0  0  0  0  0  0  0  0  0
  -83.9449   32.4588    0.2628 F   0  0  0  0  0  0  0  0  0  0  0  0
 15 16  1  0  0  0
 16 17  2  0  0  0
 17 13  1  0  0  0
 13  1  1  0  0  0
  1  2  2  0  0  0
  2  3  1  0  0  0
  3  4  1  0  0  0
  3  5  2  0  0  0
  5  6  1  0  0  0
  6  7  2  0  0  0
  7  8  1  0  0  0
  8  9  1  0  0  0
  8 10  2  0  0  0
  5 28  1  0  0  0
 28 29  3  0  0  0
 29 30  1  0  0  0
 30 31  2  0  0  0
 31 32  1  0  0  0
 32 33  2  0  0  0
 33 37  1  0  0  0
 37 38  1  0  0  0
 38 39  1  0  0  0
 39 40  1  0  0  0
 39 41  1  0  0  0
 33 34  1  0  0  0
 34 35  2  0  0  0
 35 36  1  0  0  0
 17 18  1  0  0  0
 18 19  2  0  0  0
 19 20  1  0  0  0
 20 21  2  0  0  0
 21 22  1  0  0  0
 22 23  1  0  0  0
 23 24  1  0  0  0
 24 25  1  0  0  0
 25 26  1  0  0  0
 26 27  2  0  0  0
 21 16  1  0  0  0
 26 22  1  0  0  0
  7  1  1  0  0  0
 35 30  1  0  0  0
 13 14  1  0  0  0
  9 11  1  0  0  0
  9 12  1  0  0  0
M  END
> <minimizedAffinity>
-7.03383

> <CNNscore>
0.0929397792

> <CNNaffinity>
6.1316823959

> <CNN_VS>
0.5698772073

> <CNNaffinity_variance>
0.6827036142

$$$$
[H]c1nc(OC([H])([H])C([H])(F)F)c([H])c(Cl)c1C#Cc1c([H])c(C(=O)N([H])[H])c(N([H])c2c([H])c([H])c([H])c(N3C(=O)C([H])([H])C([H])([H])C3([H])[H])c2C([H])([H])[H])c([H])c1C([H])([H])[H]


 41 44  0  0  0  0  0  0  0  0999 V2000
  -93.3336   24.8201   -1.1109 C   0  0  0  0  0  0  0  0  0  0  0  0
  -93.1436   26.0196   -1.8155 C   0  0  0  0  0  0  0  0  0  0  0  0
  -92.0597   26.8252   -1.5414 C   0  0  0  0  0  0  0  0  0  0  0  0
  -91.8796   28.0898   -2.3034 C   0  0  0  0  0  0  0  0  0  0  0  0
  -91.1330   26.5052   -0.5871 C   0  0  0  0  0  0  0  0  0  0  0  0
  -91.2919   25.3533    0.1089 C   0  0  0  0  0  0  0  0  0  0  0  0
  -92.3909   24.5004   -0.1463 C   0  0  0  0  0  0  0  0  0  0  0  0
  -92.4618   23.2662    0.5801 C   0  0  0  0  0  0  0  0  0  0  0  0
  -91.9966   22.0523   -0.0484 N   0  0  0  0  0  0  0  0  0  0  0  0
  -92.8953   23.1481    1.7212 O   0  0  0  0  0  0  0  0  0  0  0  0
  -91.0281   21.9733   -0.3684 H   0  0  0  0  0  0  0  0  0  0  0  0
  -92.6479   21.2502   -0.1790 H   0  0  0  0  0  0  0  0  0  0  0  0
  -94.5192   24.0729   -1.3097 N   0  0  0  0  0  0  0  0  0  0  0  0
  -94.7543   23.2946   -0.6203 H   0  0  0  0  0  0  0  0  0  0  0  0
  -94.0070   22.8099   -3.7669 C   0  0  0  0  0  0  0  0  0  0  0  0
  -95.2271   23.6761   -3.5706 C   0  0  0  0  0  0  0  0  0  0  0  0
  -95.4880   24.2698   -2.3304 C   0  0  0  0  0  0  0  0  0  0  0  0
  -96.6126   25.0532   -2.1877 C   0  0  0  0  0  0  0  0  0  0  0  0
  -97.4740   25.2533   -3.2415 C   0  0  0  0  0  0  0  0  0  0  0  0
  -97.2149   24.6707   -4.4495 C   0  0  0  0  0  0  0  0  0  0  0  0
  -96.0969   23.8876   -4.6095 C   0  0  0  0  0  0  0  0  0  0  0  0
  -95.8248   23.2796   -5.8681 N   0  0  0  0  0  0  0  0  0  0  0  0
  -96.2050   21.9200   -6.2136 C   0  0  0  0  0  0  0  0  0  0  0  0
  -95.6951   21.7292   -7.6263 C   0  0  0  0  0  0  0  0  0  0  0  0
  -95.5519   23.1227   -8.1689 C   0  0  0  0  0  0  0  0  0  0  0  0
  -95.1526   23.8931   -6.9620 C   0  0  0  0  0  0  0  0  0  0  0  0
  -94.3737   24.8970   -6.8892 O   0  0  0  0  0  0  0  0  0  0  0  0
  -90.0196   27.3747   -0.3343 C   0  0  0  0  0  0  0  0  0  0  0  0
  -89.0871   28.1146   -0.1409 C   0  0  0  0  0  0  0  0  0  0  0  0
  -87.9748   29.0270    0.0831 C   0  0  0  0  0  0  0  0  0  0  0  0
  -88.0306   30.3370   -0.3382 C   0  0  0  0  0  0  0  0  0  0  0  0
  -87.0234   31.2185   -0.1523 N   0  0  0  0  0  0  0  0  0  0  0  0
  -85.9161   30.7967    0.4726 C   0  0  0  0  0  0  0  0  0  0  0  0
  -85.7949   29.5004    0.9192 C   0  0  0  0  0  0  0  0  0  0  0  0
  -86.8321   28.6076    0.7233 C   0  0  0  0  0  0  0  0  0  0  0  0
  -86.7544   26.9468    1.2604 Cl  0  0  0  0  0  0  0  0  0  0  0  0
  -84.8826   31.6819    0.6693 O   0  0  0  0  0  0  0  0  0  0  0  0
  -83.9617   31.5865    1.7312 C   0  0  0  0  0  0  0  0  0  0  0  0
  -82.6249   31.1163    1.1466 C   0  0  0  0  0  0  0  0  0  0  0  0
  -82.7787   31.1300   -0.2300 F   0  0  0  0  0  0  0  0  0  0  0  0
  -82.4375   29.7907    1.5147 F   0  0  0  0  0  0  0  0  0  0  0  0
 15 16  1  0  0  0
 16 17  2  0  0  0
 17 13  1  0  0  0
 13  1  1  0  0  0
  1  2  2  0  0  0
  2  3  1  0  0  0
  3  4  1  0  0  0
  3  5  2  0  0  0
  5  6  1  0  0  0
  6  7  2  0  0  0
  7  8  1  0  0  0
  8  9  1  0  0  0
  8 10  2  0  0  0
  5 28  1  0  0  0
 28 29  3  0  0  0
 29 30  1  0  0  0
 30 31  2  0  0  0
 31 32  1  0  0  0
 32 33  2  0  0  0
 33 37  1  0  0  0
 37 38  1  0  0  0
 38 39  1  0  0  0
 39 40  1  0  0  0
 39 41  1  0  0  0
 33 34  1  0  0  0
 34 35  2  0  0  0
 35 36  1  0  0  0
 17 18  1  0  0  0
 18 19  2  0  0  0
 19 20  1  0  0  0
 20 21  2  0  0  0
 21 22  1  0  0  0
 22 23  1  0  0  0
 23 24  1  0  0  0
 24 25  1  0  0  0
 25 26  1  0  0  0
 26 27  2  0  0  0
 21 16  1  0  0  0
 26 22  1  0  0  0
  7  1  1  0  0  0
 35 30  1  0  0  0
 13 14  1  0  0  0
  9 11  1  0  0  0
  9 12  1  0  0  0
M  END
> <minimizedAffinity>
-7.10749

> <CNNscore>
0.0898506716

> <CNNaffinity>
6.1597509384

> <CNN_VS>
0.5534577370

> <CNNaffinity_variance>
0.5357565880

$$$$
[H]c1nc(OC([H])([H])C([H])(F)F)c([H])c(Cl)c1C#Cc1c([H])c(C(=O)N([H])[H])c(N([H])c2c([H])c([H])c([H])c(N3C(=O)C([H])([H])C([H])([H])C3([H])[H])c2C([H])([H])[H])c([H])c1C([H])([H])[H]


 41 44  0  0  0  0  0  0  0  0999 V2000
  -90.5804   35.3781   -5.2067 C   0  0  0  0  0  0  0  0  0  0  0  0
  -90.6674   34.0202   -4.8608 C   0  0  0  0  0  0  0  0  0  0  0  0
  -89.7932   33.4766   -3.9448 C   0  0  0  0  0  0  0  0  0  0  0  0
  -89.9074   32.0358   -3.5935 C   0  0  0  0  0  0  0  0  0  0  0  0
  -88.8145   34.2163   -3.3390 C   0  0  0  0  0  0  0  0  0  0  0  0
  -88.7072   35.5299   -3.6548 C   0  0  0  0  0  0  0  0  0  0  0  0
  -89.5880   36.1230   -4.5890 C   0  0  0  0  0  0  0  0  0  0  0  0
  -89.4606   37.5312   -4.8268 C   0  0  0  0  0  0  0  0  0  0  0  0
  -89.0414   38.3921   -3.7460 N   0  0  0  0  0  0  0  0  0  0  0  0
  -89.6828   38.0843   -5.8986 O   0  0  0  0  0  0  0  0  0  0  0  0
  -88.1397   38.2436   -3.2858 H   0  0  0  0  0  0  0  0  0  0  0  0
  -89.6577   39.1697   -3.4298 H   0  0  0  0  0  0  0  0  0  0  0  0
  -91.3961   35.8886   -6.2449 N   0  0  0  0  0  0  0  0  0  0  0  0
  -91.8146   36.8627   -6.1337 H   0  0  0  0  0  0  0  0  0  0  0  0
  -94.0409   34.9929   -6.5580 C   0  0  0  0  0  0  0  0  0  0  0  0
  -93.0055   34.7691   -7.6329 C   0  0  0  0  0  0  0  0  0  0  0  0
  -91.7012   35.2523   -7.4782 C   0  0  0  0  0  0  0  0  0  0  0  0
  -90.7829   35.0305   -8.4813 C   0  0  0  0  0  0  0  0  0  0  0  0
  -91.1330   34.3473   -9.6229 C   0  0  0  0  0  0  0  0  0  0  0  0
  -92.4076   33.8785   -9.7689 C   0  0  0  0  0  0  0  0  0  0  0  0
  -93.3357   34.0898   -8.7775 C   0  0  0  0  0  0  0  0  0  0  0  0
  -94.6650   33.6016   -8.9276 N   0  0  0  0  0  0  0  0  0  0  0  0
  -95.7355   34.3431   -9.5731 C   0  0  0  0  0  0  0  0  0  0  0  0
  -96.9414   33.4329   -9.4763 C   0  0  0  0  0  0  0  0  0  0  0  0
  -96.3648   32.0595   -9.2811 C   0  0  0  0  0  0  0  0  0  0  0  0
  -95.1448   32.3392   -8.4794 C   0  0  0  0  0  0  0  0  0  0  0  0
  -94.6141   31.6197   -7.5736 O   0  0  0  0  0  0  0  0  0  0  0  0
  -87.9251   33.6082   -2.3911 C   0  0  0  0  0  0  0  0  0  0  0  0
  -87.1934   33.0843   -1.5883 C   0  0  0  0  0  0  0  0  0  0  0  0
  -86.3194   32.4291   -0.6256 C   0  0  0  0  0  0  0  0  0  0  0  0
  -85.0781   32.9435   -0.3234 C   0  0  0  0  0  0  0  0  0  0  0  0
  -84.2342   32.3698    0.5625 N   0  0  0  0  0  0  0  0  0  0  0  0
  -84.6246   31.2452    1.1766 C   0  0  0  0  0  0  0  0  0  0  0  0
  -85.8525   30.6781    0.9207 C   0  0  0  0  0  0  0  0  0  0  0  0
  -86.7074   31.2741    0.0124 C   0  0  0  0  0  0  0  0  0  0  0  0
  -88.2809   30.6159   -0.3663 Cl  0  0  0  0  0  0  0  0  0  0  0  0
  -83.7770   30.6497    2.0807 O   0  0  0  0  0  0  0  0  0  0  0  0
  -82.9331   29.5663    1.7660 C   0  0  0  0  0  0  0  0  0  0  0  0
  -83.5822   28.2943    2.3236 C   0  0  0  0  0  0  0  0  0  0  0  0
  -84.3864   28.6999    3.3759 F   0  0  0  0  0  0  0  0  0  0  0  0
  -82.5792   27.5037    2.8686 F   0  0  0  0  0  0  0  0  0  0  0  0
 15 16  1  0  0  0
 16 17  2  0  0  0
 17 13  1  0  0  0
 13  1  1  0  0  0
  1  2  2  0  0  0
  2  3  1  0  0  0
  3  4  1  0  0  0
  3  5  2  0  0  0
  5  6  1  0  0  0
  6  7  2  0  0  0
  7  8  1  0  0  0
  8  9  1  0  0  0
  8 10  2  0  0  0
  5 28  1  0  0  0
 28 29  3  0  0  0
 29 30  1  0  0  0
 30 31  2  0  0  0
 31 32  1  0  0  0
 32 33  2  0  0  0
 33 37  1  0  0  0
 37 38  1  0  0  0
 38 39  1  0  0  0
 39 40  1  0  0  0
 39 41  1  0  0  0
 33 34  1  0  0  0
 34 35  2  0  0  0
 35 36  1  0  0  0
 17 18  1  0  0  0
 18 19  2  0  0  0
 19 20  1  0  0  0
 20 21  2  0  0  0
 21 22  1  0  0  0
 22 23  1  0  0  0
 23 24  1  0  0  0
 24 25  1  0  0  0
 25 26  1  0  0  0
 26 27  2  0  0  0
 21 16  1  0  0  0
 26 22  1  0  0  0
  7  1  1  0  0  0
 35 30  1  0  0  0
 13 14  1  0  0  0
  9 11  1  0  0  0
  9 12  1  0  0  0
M  END
> <minimizedAffinity>
-7.91272

> <CNNscore>
0.0850232691

> <CNNaffinity>
6.2685484886

> <CNN_VS>
0.5329724550

> <CNNaffinity_variance>
0.2693390846

$$$$
[H]c1nc(OC([H])([H])C([H])(F)F)c([H])c(Cl)c1C#Cc1c([H])c(C(=O)N([H])[H])c(N([H])c2c([H])c([H])c([H])c(N3C(=O)C([H])([H])C([H])([H])C3([H])[H])c2C([H])([H])[H])c([H])c1C([H])([H])[H]


 41 44  0  0  0  0  0  0  0  0999 V2000
  -91.5256   23.0848   -1.1635 C   0  0  0  0  0  0  0  0  0  0  0  0
  -91.5161   24.2032   -2.0122 C   0  0  0  0  0  0  0  0  0  0  0  0
  -90.6734   25.2637   -1.7587 C   0  0  0  0  0  0  0  0  0  0  0  0
  -90.6807   26.4360   -2.6741 C   0  0  0  0  0  0  0  0  0  0  0  0
  -89.8215   25.2818   -0.6882 C   0  0  0  0  0  0  0  0  0  0  0  0
  -89.8103   24.2154    0.1480 C   0  0  0  0  0  0  0  0  0  0  0  0
  -90.6596   23.1079   -0.0814 C   0  0  0  0  0  0  0  0  0  0  0  0
  -90.5489   21.9860    0.8045 C   0  0  0  0  0  0  0  0  0  0  0  0
  -89.3328   21.2075    0.8051 N   0  0  0  0  0  0  0  0  0  0  0  0
  -91.4217   21.6193    1.5841 O   0  0  0  0  0  0  0  0  0  0  0  0
  -88.4356   21.6488    1.0221 H   0  0  0  0  0  0  0  0  0  0  0  0
  -89.3648   20.1904    0.5836 H   0  0  0  0  0  0  0  0  0  0  0  0
  -92.4886   22.0662   -1.3603 N   0  0  0  0  0  0  0  0  0  0  0  0
  -92.1592   21.0533   -1.4048 H   0  0  0  0  0  0  0  0  0  0  0  0
  -93.6329   21.3827   -3.8340 C   0  0  0  0  0  0  0  0  0  0  0  0
  -94.4731   21.9323   -2.7072 C   0  0  0  0  0  0  0  0  0  0  0  0
  -93.8954   22.2346   -1.4689 C   0  0  0  0  0  0  0  0  0  0  0  0
  -94.6938   22.7333   -0.4627 C   0  0  0  0  0  0  0  0  0  0  0  0
  -96.0405   22.9327   -0.6610 C   0  0  0  0  0  0  0  0  0  0  0  0
  -96.5993   22.6352   -1.8715 C   0  0  0  0  0  0  0  0  0  0  0  0
  -95.8170   22.1384   -2.8863 C   0  0  0  0  0  0  0  0  0  0  0  0
  -96.3974   21.8278   -4.1490 N   0  0  0  0  0  0  0  0  0  0  0  0
  -96.5882   22.7957   -5.2165 C   0  0  0  0  0  0  0  0  0  0  0  0
  -97.2423   22.0084   -6.3320 C   0  0  0  0  0  0  0  0  0  0  0  0
  -96.8902   20.5769   -6.0425 C   0  0  0  0  0  0  0  0  0  0  0  0
  -96.8718   20.5496   -4.5565 C   0  0  0  0  0  0  0  0  0  0  0  0
  -97.2048   19.5969   -3.7809 O   0  0  0  0  0  0  0  0  0  0  0  0
  -88.9616   26.4082   -0.4623 C   0  0  0  0  0  0  0  0  0  0  0  0
  -88.2535   27.3631   -0.2593 C   0  0  0  0  0  0  0  0  0  0  0  0
  -87.4043   28.5145    0.0105 C   0  0  0  0  0  0  0  0  0  0  0  0
  -87.6358   29.7295   -0.5954 C   0  0  0  0  0  0  0  0  0  0  0  0
  -86.8744   30.8240   -0.3755 N   0  0  0  0  0  0  0  0  0  0  0  0
  -85.8436   30.7217    0.4738 C   0  0  0  0  0  0  0  0  0  0  0  0
  -85.5564   29.5369    1.1130 C   0  0  0  0  0  0  0  0  0  0  0  0
  -86.3426   28.4239    0.8801 C   0  0  0  0  0  0  0  0  0  0  0  0
  -86.0429   26.8855    1.6522 Cl  0  0  0  0  0  0  0  0  0  0  0  0
  -85.0596   31.8267    0.7079 O   0  0  0  0  0  0  0  0  0  0  0  0
  -84.4220   32.5637   -0.3095 C   0  0  0  0  0  0  0  0  0  0  0  0
  -82.9207   32.2637   -0.2298 C   0  0  0  0  0  0  0  0  0  0  0  0
  -82.7702   30.9402   -0.6098 F   0  0  0  0  0  0  0  0  0  0  0  0
  -82.5369   32.3433    1.1023 F   0  0  0  0  0  0  0  0  0  0  0  0
 15 16  1  0  0  0
 16 17  2  0  0  0
 17 13  1  0  0  0
 13  1  1  0  0  0
  1  2  2  0  0  0
  2  3  1  0  0  0
  3  4  1  0  0  0
  3  5  2  0  0  0
  5  6  1  0  0  0
  6  7  2  0  0  0
  7  8  1  0  0  0
  8  9  1  0  0  0
  8 10  2  0  0  0
  5 28  1  0  0  0
 28 29  3  0  0  0
 29 30  1  0  0  0
 30 31  2  0  0  0
 31 32  1  0  0  0
 32 33  2  0  0  0
 33 37  1  0  0  0
 37 38  1  0  0  0
 38 39  1  0  0  0
 39 40  1  0  0  0
 39 41  1  0  0  0
 33 34  1  0  0  0
 34 35  2  0  0  0
 35 36  1  0  0  0
 17 18  1  0  0  0
 18 19  2  0  0  0
 19 20  1  0  0  0
 20 21  2  0  0  0
 21 22  1  0  0  0
 22 23  1  0  0  0
 23 24  1  0  0  0
 24 25  1  0  0  0
 25 26  1  0  0  0
 26 27  2  0  0  0
 21 16  1  0  0  0
 26 22  1  0  0  0
  7  1  1  0  0  0
 35 30  1  0  0  0
 13 14  1  0  0  0
  9 11  1  0  0  0
  9 12  1  0  0  0
M  END
> <minimizedAffinity>
-6.91504

> <CNNscore>
0.0844193771

> <CNNaffinity>
6.0709085464

> <CNN_VS>
0.5125023127

> <CNNaffinity_variance>
0.4346575737

$$$$
[H]c1nc(OC([H])([H])C([H])(F)F)c([H])c(Cl)c1C#Cc1c([H])c(C(=O)N([H])[H])c(N([H])c2c([H])c([H])c([H])c(N3C(=O)C([H])([H])C([H])([H])C3([H])[H])c2C([H])([H])[H])c([H])c1C([H])([H])[H]


 41 44  0  0  0  0  0  0  0  0999 V2000
  -88.5063   32.3463   -3.0895 C   0  0  0  0  0  0  0  0  0  0  0  0
  -89.5075   31.3621   -3.1043 C   0  0  0  0  0  0  0  0  0  0  0  0
  -89.6056   30.4516   -2.0745 C   0  0  0  0  0  0  0  0  0  0  0  0
  -90.6764   29.4200   -2.1125 C   0  0  0  0  0  0  0  0  0  0  0  0
  -88.7490   30.4586   -1.0076 C   0  0  0  0  0  0  0  0  0  0  0  0
  -87.7725   31.3974   -0.9678 C   0  0  0  0  0  0  0  0  0  0  0  0
  -87.6424   32.3495   -2.0056 C   0  0  0  0  0  0  0  0  0  0  0  0
  -86.6293   33.3546   -1.8672 C   0  0  0  0  0  0  0  0  0  0  0  0
  -85.5274   33.3759   -2.8001 N   0  0  0  0  0  0  0  0  0  0  0  0
  -86.6165   34.2228   -1.0010 O   0  0  0  0  0  0  0  0  0  0  0  0
  -85.6999   33.4852   -3.8027 H   0  0  0  0  0  0  0  0  0  0  0  0
  -84.5497   33.2794   -2.4545 H   0  0  0  0  0  0  0  0  0  0  0  0
  -88.3357   33.1868   -4.2155 N   0  0  0  0  0  0  0  0  0  0  0  0
  -87.3552   33.3149   -4.6137 H   0  0  0  0  0  0  0  0  0  0  0  0
  -88.8283   35.8404   -3.4335 C   0  0  0  0  0  0  0  0  0  0  0  0
  -89.6366   35.1824   -4.5249 C   0  0  0  0  0  0  0  0  0  0  0  0
  -89.3563   33.8719   -4.9284 C   0  0  0  0  0  0  0  0  0  0  0  0
  -90.1144   33.3041   -5.9292 C   0  0  0  0  0  0  0  0  0  0  0  0
  -91.1325   34.0068   -6.5310 C   0  0  0  0  0  0  0  0  0  0  0  0
  -91.4013   35.2858   -6.1337 C   0  0  0  0  0  0  0  0  0  0  0  0
  -90.6559   35.8667   -5.1360 C   0  0  0  0  0  0  0  0  0  0  0  0
  -90.9346   37.1999   -4.7201 N   0  0  0  0  0  0  0  0  0  0  0  0
  -92.0309   37.5642   -3.8381 C   0  0  0  0  0  0  0  0  0  0  0  0
  -91.9269   39.0685   -3.7026 C   0  0  0  0  0  0  0  0  0  0  0  0
  -90.5018   39.3834   -4.0585 C   0  0  0  0  0  0  0  0  0  0  0  0
  -90.2004   38.3601   -5.0937 C   0  0  0  0  0  0  0  0  0  0  0  0
  -89.4468   38.4682   -6.1136 O   0  0  0  0  0  0  0  0  0  0  0  0
  -88.8878   29.4903    0.0424 C   0  0  0  0  0  0  0  0  0  0  0  0
  -89.0178   28.6655    0.9126 C   0  0  0  0  0  0  0  0  0  0  0  0
  -89.1734   27.6515    1.9458 C   0  0  0  0  0  0  0  0  0  0  0  0
  -88.2890   26.6013    2.0537 C   0  0  0  0  0  0  0  0  0  0  0  0
  -88.3942   25.6380    2.9955 N   0  0  0  0  0  0  0  0  0  0  0  0
  -89.4090   25.7085    3.8671 C   0  0  0  0  0  0  0  0  0  0  0  0
  -90.3284   26.7316    3.8153 C   0  0  0  0  0  0  0  0  0  0  0  0
  -90.2104   27.7114    2.8472 C   0  0  0  0  0  0  0  0  0  0  0  0
  -91.3363   29.0410    2.7161 Cl  0  0  0  0  0  0  0  0  0  0  0  0
  -89.5293   24.7358    4.8313 O   0  0  0  0  0  0  0  0  0  0  0  0
  -88.7785   23.5437    4.8384 C   0  0  0  0  0  0  0  0  0  0  0  0
  -87.7272   23.6631    5.9478 C   0  0  0  0  0  0  0  0  0  0  0  0
  -87.7844   22.4787    6.6638 F   0  0  0  0  0  0  0  0  0  0  0  0
  -88.1279   24.6728    6.8125 F   0  0  0  0  0  0  0  0  0  0  0  0
 15 16  1  0  0  0
 16 17  2  0  0  0
 17 13  1  0  0  0
 13  1  1  0  0  0
  1  2  2  0  0  0
  2  3  1  0  0  0
  3  4  1  0  0  0
  3  5  2  0  0  0
  5  6  1  0  0  0
  6  7  2  0  0  0
  7  8  1  0  0  0
  8  9  1  0  0  0
  8 10  2  0  0  0
  5 28  1  0  0  0
 28 29  3  0  0  0
 29 30  1  0  0  0
 30 31  2  0  0  0
 31 32  1  0  0  0
 32 33  2  0  0  0
 33 37  1  0  0  0
 37 38  1  0  0  0
 38 39  1  0  0  0
 39 40  1  0  0  0
 39 41  1  0  0  0
 33 34  1  0  0  0
 34 35  2  0  0  0
 35 36  1  0  0  0
 17 18  1  0  0  0
 18 19  2  0  0  0
 19 20  1  0  0  0
 20 21  2  0  0  0
 21 22  1  0  0  0
 22 23  1  0  0  0
 23 24  1  0  0  0
 24 25  1  0  0  0
 25 26  1  0  0  0
 26 27  2  0  0  0
 21 16  1  0  0  0
 26 22  1  0  0  0
  7  1  1  0  0  0
 35 30  1  0  0  0
 13 14  1  0  0  0
  9 11  1  0  0  0
  9 12  1  0  0  0
M  END
> <minimizedAffinity>
-7.31213

> <CNNscore>
0.0820552632

> <CNNaffinity>
6.4093790054

> <CNN_VS>
0.5259232521

> <CNNaffinity_variance>
0.1927171648

$$$$
[H]c1nc(OC([H])([H])C([H])(F)F)c([H])c(Cl)c1C#Cc1c([H])c(C(=O)N([H])[H])c(N([H])c2c([H])c([H])c([H])c(N3C(=O)C([H])([H])C([H])([H])C3([H])[H])c2C([H])([H])[H])c([H])c1C([H])([H])[H]


 41 44  0  0  0  0  0  0  0  0999 V2000
  -89.3456   33.5936   -4.1418 C   0  0  0  0  0  0  0  0  0  0  0  0
  -90.4896   32.7867   -4.0360 C   0  0  0  0  0  0  0  0  0  0  0  0
  -90.5861   31.8411   -3.0382 C   0  0  0  0  0  0  0  0  0  0  0  0
  -91.8095   31.0001   -2.9460 C   0  0  0  0  0  0  0  0  0  0  0  0
  -89.5918   31.6428   -2.1194 C   0  0  0  0  0  0  0  0  0  0  0  0
  -88.4758   32.4074   -2.1984 C   0  0  0  0  0  0  0  0  0  0  0  0
  -88.3422   33.3893   -3.2076 C   0  0  0  0  0  0  0  0  0  0  0  0
  -87.1646   34.2072   -3.1927 C   0  0  0  0  0  0  0  0  0  0  0  0
  -85.8857   33.5941   -2.9218 N   0  0  0  0  0  0  0  0  0  0  0  0
  -87.1482   35.4165   -3.3957 O   0  0  0  0  0  0  0  0  0  0  0  0
  -85.5319   32.8466   -3.5242 H   0  0  0  0  0  0  0  0  0  0  0  0
  -85.3171   33.9114   -2.1090 H   0  0  0  0  0  0  0  0  0  0  0  0
  -89.2046   34.4646   -5.2487 N   0  0  0  0  0  0  0  0  0  0  0  0
  -88.4703   34.2375   -5.9873 H   0  0  0  0  0  0  0  0  0  0  0  0
  -90.8726   34.3358   -7.5063 C   0  0  0  0  0  0  0  0  0  0  0  0
  -90.7872   35.5862   -6.6656 C   0  0  0  0  0  0  0  0  0  0  0  0
  -89.9793   35.6237   -5.5234 C   0  0  0  0  0  0  0  0  0  0  0  0
  -89.9273   36.7822   -4.7793 C   0  0  0  0  0  0  0  0  0  0  0  0
  -90.6565   37.8905   -5.1434 C   0  0  0  0  0  0  0  0  0  0  0  0
  -91.4439   37.8481   -6.2587 C   0  0  0  0  0  0  0  0  0  0  0  0
  -91.5062   36.7011   -7.0131 C   0  0  0  0  0  0  0  0  0  0  0  0
  -92.3262   36.6548   -8.1764 N   0  0  0  0  0  0  0  0  0  0  0  0
  -91.8989   37.1039   -9.4910 C   0  0  0  0  0  0  0  0  0  0  0  0
  -93.1008   36.8721  -10.3820 C   0  0  0  0  0  0  0  0  0  0  0  0
  -93.9128   35.8344   -9.6605 C   0  0  0  0  0  0  0  0  0  0  0  0
  -93.6636   36.1724   -8.2346 C   0  0  0  0  0  0  0  0  0  0  0  0
  -94.4599   36.0642   -7.2476 O   0  0  0  0  0  0  0  0  0  0  0  0
  -89.7347   30.6456   -1.0973 C   0  0  0  0  0  0  0  0  0  0  0  0
  -89.8373   29.8151   -0.2290 C   0  0  0  0  0  0  0  0  0  0  0  0
  -89.9553   28.8300    0.8367 C   0  0  0  0  0  0  0  0  0  0  0  0
  -91.0482   28.8128    1.6745 C   0  0  0  0  0  0  0  0  0  0  0  0
  -91.1999   27.9182    2.6760 N   0  0  0  0  0  0  0  0  0  0  0  0
  -90.2394   27.0034    2.8627 C   0  0  0  0  0  0  0  0  0  0  0  0
  -89.1210   26.9646    2.0612 C   0  0  0  0  0  0  0  0  0  0  0  0
  -88.9769   27.8850    1.0398 C   0  0  0  0  0  0  0  0  0  0  0  0
  -87.5875   27.9011   -0.0194 Cl  0  0  0  0  0  0  0  0  0  0  0  0
  -90.3794   26.0864    3.8776 O   0  0  0  0  0  0  0  0  0  0  0  0
  -89.4982   25.0067    4.0838 C   0  0  0  0  0  0  0  0  0  0  0  0
  -90.2078   23.7313    3.6149 C   0  0  0  0  0  0  0  0  0  0  0  0
  -90.0565   23.6883    2.2387 F   0  0  0  0  0  0  0  0  0  0  0  0
  -91.5659   23.8792    3.8634 F   0  0  0  0  0  0  0  0  0  0  0  0
 15 16  1  0  0  0
 16 17  2  0  0  0
 17 13  1  0  0  0
 13  1  1  0  0  0
  1  2  2  0  0  0
  2  3  1  0  0  0
  3  4  1  0  0  0
  3  5  2  0  0  0
  5  6  1  0  0  0
  6  7  2  0  0  0
  7  8  1  0  0  0
  8  9  1  0  0  0
  8 10  2  0  0  0
  5 28  1  0  0  0
 28 29  3  0  0  0
 29 30  1  0  0  0
 30 31  2  0  0  0
 31 32  1  0  0  0
 32 33  2  0  0  0
 33 37  1  0  0  0
 37 38  1  0  0  0
 38 39  1  0  0  0
 39 40  1  0  0  0
 39 41  1  0  0  0
 33 34  1  0  0  0
 34 35  2  0  0  0
 35 36  1  0  0  0
 17 18  1  0  0  0
 18 19  2  0  0  0
 19 20  1  0  0  0
 20 21  2  0  0  0
 21 22  1  0  0  0
 22 23  1  0  0  0
 23 24  1  0  0  0
 24 25  1  0  0  0
 25 26  1  0  0  0
 26 27  2  0  0  0
 21 16  1  0  0  0
 26 22  1  0  0  0
  7  1  1  0  0  0
 35 30  1  0  0  0
 13 14  1  0  0  0
  9 11  1  0  0  0
  9 12  1  0  0  0
M  END
> <minimizedAffinity>
-6.56941

> <CNNscore>
0.0756495595

> <CNNaffinity>
6.0071969032

> <CNN_VS>
0.4544417858

> <CNNaffinity_variance>
0.1793400943

$$$$
[H]c1nc(OC([H])([H])C([H])(F)F)c([H])c(Cl)c1C#Cc1c([H])c(C(=O)N([H])[H])c(N([H])c2c([H])c([H])c([H])c(N3C(=O)C([H])([H])C([H])([H])C3([H])[H])c2C([H])([H])[H])c([H])c1C([H])([H])[H]


 41 44  0  0  0  0  0  0  0  0999 V2000
  -87.8931   32.5117   -2.6478 C   0  0  0  0  0  0  0  0  0  0  0  0
  -88.9350   31.5816   -2.7917 C   0  0  0  0  0  0  0  0  0  0  0  0
  -89.1386   30.6092   -1.8367 C   0  0  0  0  0  0  0  0  0  0  0  0
  -90.2505   29.6369   -2.0111 C   0  0  0  0  0  0  0  0  0  0  0  0
  -88.3512   30.5013   -0.7229 C   0  0  0  0  0  0  0  0  0  0  0  0
  -87.3376   31.3857   -0.5588 C   0  0  0  0  0  0  0  0  0  0  0  0
  -87.0996   32.3984   -1.5170 C   0  0  0  0  0  0  0  0  0  0  0  0
  -86.0526   33.3404   -1.2478 C   0  0  0  0  0  0  0  0  0  0  0  0
  -84.9076   33.3895   -2.1261 N   0  0  0  0  0  0  0  0  0  0  0  0
  -86.0445   34.1308   -0.3101 O   0  0  0  0  0  0  0  0  0  0  0  0
  -85.0272   33.5908   -3.1221 H   0  0  0  0  0  0  0  0  0  0  0  0
  -83.9525   33.2190   -1.7475 H   0  0  0  0  0  0  0  0  0  0  0  0
  -87.6143   33.4172   -3.6994 N   0  0  0  0  0  0  0  0  0  0  0  0
  -86.9258   33.1228   -4.4581 H   0  0  0  0  0  0  0  0  0  0  0  0
  -89.6315   33.5865   -5.6482 C   0  0  0  0  0  0  0  0  0  0  0  0
  -89.1739   34.8062   -4.8864 C   0  0  0  0  0  0  0  0  0  0  0  0
  -88.1934   34.7003   -3.8934 C   0  0  0  0  0  0  0  0  0  0  0  0
  -87.8014   35.8352   -3.2173 C   0  0  0  0  0  0  0  0  0  0  0  0
  -88.3607   37.0588   -3.5047 C   0  0  0  0  0  0  0  0  0  0  0  0
  -89.3179   37.1562   -4.4743 C   0  0  0  0  0  0  0  0  0  0  0  0
  -89.7194   36.0345   -5.1592 C   0  0  0  0  0  0  0  0  0  0  0  0
  -90.7169   36.1339   -6.1707 N   0  0  0  0  0  0  0  0  0  0  0  0
  -90.4335   36.4226   -7.5667 C   0  0  0  0  0  0  0  0  0  0  0  0
  -91.7918   36.4397   -8.2354 C   0  0  0  0  0  0  0  0  0  0  0  0
  -92.6760   35.6445   -7.3174 C   0  0  0  0  0  0  0  0  0  0  0  0
  -92.1173   35.9699   -5.9790 C   0  0  0  0  0  0  0  0  0  0  0  0
  -92.7361   36.0851   -4.8728 O   0  0  0  0  0  0  0  0  0  0  0  0
  -88.5992   29.4720    0.2458 C   0  0  0  0  0  0  0  0  0  0  0  0
  -88.8192   28.5966    1.0455 C   0  0  0  0  0  0  0  0  0  0  0  0
  -89.0809   27.5223    1.9929 C   0  0  0  0  0  0  0  0  0  0  0  0
  -88.2512   26.4263    2.0758 C   0  0  0  0  0  0  0  0  0  0  0  0
  -88.4550   25.4066    2.9388 N   0  0  0  0  0  0  0  0  0  0  0  0
  -89.5166   25.4651    3.7536 C   0  0  0  0  0  0  0  0  0  0  0  0
  -90.3858   26.5320    3.7225 C   0  0  0  0  0  0  0  0  0  0  0  0
  -90.1670   27.5694    2.8354 C   0  0  0  0  0  0  0  0  0  0  0  0
  -91.2240   28.9570    2.7355 Cl  0  0  0  0  0  0  0  0  0  0  0  0
  -89.7372   24.4352    4.6373 O   0  0  0  0  0  0  0  0  0  0  0  0
  -88.8594   23.3460    4.8046 C   0  0  0  0  0  0  0  0  0  0  0  0
  -87.8198   23.7443    5.8585 C   0  0  0  0  0  0  0  0  0  0  0  0
  -87.6615   22.6415    6.6816 F   0  0  0  0  0  0  0  0  0  0  0  0
  -88.3664   24.7523    6.6416 F   0  0  0  0  0  0  0  0  0  0  0  0
 15 16  1  0  0  0
 16 17  2  0  0  0
 17 13  1  0  0  0
 13  1  1  0  0  0
  1  2  2  0  0  0
  2  3  1  0  0  0
  3  4  1  0  0  0
  3  5  2  0  0  0
  5  6  1  0  0  0
  6  7  2  0  0  0
  7  8  1  0  0  0
  8  9  1  0  0  0
  8 10  2  0  0  0
  5 28  1  0  0  0
 28 29  3  0  0  0
 29 30  1  0  0  0
 30 31  2  0  0  0
 31 32  1  0  0  0
 32 33  2  0  0  0
 33 37  1  0  0  0
 37 38  1  0  0  0
 38 39  1  0  0  0
 39 40  1  0  0  0
 39 41  1  0  0  0
 33 34  1  0  0  0
 34 35  2  0  0  0
 35 36  1  0  0  0
 17 18  1  0  0  0
 18 19  2  0  0  0
 19 20  1  0  0  0
 20 21  2  0  0  0
 21 22  1  0  0  0
 22 23  1  0  0  0
 23 24  1  0  0  0
 24 25  1  0  0  0
 25 26  1  0  0  0
 26 27  2  0  0  0
 21 16  1  0  0  0
 26 22  1  0  0  0
  7  1  1  0  0  0
 35 30  1  0  0  0
 13 14  1  0  0  0
  9 11  1  0  0  0
  9 12  1  0  0  0
M  END
> <minimizedAffinity>
-7.31251

> <CNNscore>
0.0688196570

> <CNNaffinity>
6.4755868912

> <CNN_VS>
0.4456476569

> <CNNaffinity_variance>
0.1929287463

$$$$
[H]c1nc(OC([H])([H])C([H])(F)F)c([H])c(Cl)c1C#Cc1c([H])c(C(=O)N([H])[H])c(N([H])c2c([H])c([H])c([H])c(N3C(=O)C([H])([H])C([H])([H])C3([H])[H])c2C([H])([H])[H])c([H])c1C([H])([H])[H]


 41 44  0  0  0  0  0  0  0  0999 V2000
  -91.4243   27.7696   -0.3122 C   0  0  0  0  0  0  0  0  0  0  0  0
  -91.5221   28.1223   -1.6677 C   0  0  0  0  0  0  0  0  0  0  0  0
  -91.0147   29.3232   -2.1141 C   0  0  0  0  0  0  0  0  0  0  0  0
  -91.1289   29.6727   -3.5554 C   0  0  0  0  0  0  0  0  0  0  0  0
  -90.4037   30.2161   -1.2765 C   0  0  0  0  0  0  0  0  0  0  0  0
  -90.2961   29.9016    0.0373 C   0  0  0  0  0  0  0  0  0  0  0  0
  -90.8032   28.6772    0.5314 C   0  0  0  0  0  0  0  0  0  0  0  0
  -90.5967   28.3795    1.9187 C   0  0  0  0  0  0  0  0  0  0  0  0
  -89.3588   27.7594    2.3285 N   0  0  0  0  0  0  0  0  0  0  0  0
  -91.4026   28.6124    2.8133 O   0  0  0  0  0  0  0  0  0  0  0  0
  -88.4638   28.2209    2.1475 H   0  0  0  0  0  0  0  0  0  0  0  0
  -89.3727   26.8366    2.8110 H   0  0  0  0  0  0  0  0  0  0  0  0
  -92.0668   26.5973    0.1531 N   0  0  0  0  0  0  0  0  0  0  0  0
  -92.9887   26.6946    0.6796 H   0  0  0  0  0  0  0  0  0  0  0  0
  -93.9944   24.8025   -0.8262 C   0  0  0  0  0  0  0  0  0  0  0  0
  -92.5956   24.3448   -0.4926 C   0  0  0  0  0  0  0  0  0  0  0  0
  -91.6358   25.2571   -0.0396 C   0  0  0  0  0  0  0  0  0  0  0  0
  -90.3682   24.8033    0.2539 C   0  0  0  0  0  0  0  0  0  0  0  0
  -90.0399   23.4757    0.1052 C   0  0  0  0  0  0  0  0  0  0  0  0
  -90.9804   22.5897   -0.3380 C   0  0  0  0  0  0  0  0  0  0  0  0
  -92.2498   23.0253   -0.6338 C   0  0  0  0  0  0  0  0  0  0  0  0
  -93.2319   22.1033   -1.0957 N   0  0  0  0  0  0  0  0  0  0  0  0
  -94.1035   21.3373   -0.2205 C   0  0  0  0  0  0  0  0  0  0  0  0
  -94.9480   20.5024   -1.1597 C   0  0  0  0  0  0  0  0  0  0  0  0
  -94.8839   21.2283   -2.4734 C   0  0  0  0  0  0  0  0  0  0  0  0
  -93.5091   21.7931   -2.4565 C   0  0  0  0  0  0  0  0  0  0  0  0
  -92.7188   21.9744   -3.4375 O   0  0  0  0  0  0  0  0  0  0  0  0
  -89.8903   31.4559   -1.7850 C   0  0  0  0  0  0  0  0  0  0  0  0
  -89.4754   32.4989   -2.2257 C   0  0  0  0  0  0  0  0  0  0  0  0
  -88.9980   33.7674   -2.7577 C   0  0  0  0  0  0  0  0  0  0  0  0
  -89.8120   34.5713   -3.5244 C   0  0  0  0  0  0  0  0  0  0  0  0
  -89.4119   35.7551   -4.0386 N   0  0  0  0  0  0  0  0  0  0  0  0
  -88.1617   36.1667   -3.7902 C   0  0  0  0  0  0  0  0  0  0  0  0
  -87.2961   35.4118   -3.0314 C   0  0  0  0  0  0  0  0  0  0  0  0
  -87.7168   34.2023   -2.5106 C   0  0  0  0  0  0  0  0  0  0  0  0
  -86.6784   33.1874   -1.5387 Cl  0  0  0  0  0  0  0  0  0  0  0  0
  -87.7399   37.3691   -4.3066 O   0  0  0  0  0  0  0  0  0  0  0  0
  -87.0711   37.4999   -5.5397 C   0  0  0  0  0  0  0  0  0  0  0  0
  -85.6557   38.0121   -5.2489 C   0  0  0  0  0  0  0  0  0  0  0  0
  -85.8036   39.0950   -4.3980 F   0  0  0  0  0  0  0  0  0  0  0  0
  -85.1251   38.5043   -6.4339 F   0  0  0  0  0  0  0  0  0  0  0  0
 15 16  1  0  0  0
 16 17  2  0  0  0
 17 13  1  0  0  0
 13  1  1  0  0  0
  1  2  2  0  0  0
  2  3  1  0  0  0
  3  4  1  0  0  0
  3  5  2  0  0  0
  5  6  1  0  0  0
  6  7  2  0  0  0
  7  8  1  0  0  0
  8  9  1  0  0  0
  8 10  2  0  0  0
  5 28  1  0  0  0
 28 29  3  0  0  0
 29 30  1  0  0  0
 30 31  2  0  0  0
 31 32  1  0  0  0
 32 33  2  0  0  0
 33 37  1  0  0  0
 37 38  1  0  0  0
 38 39  1  0  0  0
 39 40  1  0  0  0
 39 41  1  0  0  0
 33 34  1  0  0  0
 34 35  2  0  0  0
 35 36  1  0  0  0
 17 18  1  0  0  0
 18 19  2  0  0  0
 19 20  1  0  0  0
 20 21  2  0  0  0
 21 22  1  0  0  0
 22 23  1  0  0  0
 23 24  1  0  0  0
 24 25  1  0  0  0
 25 26  1  0  0  0
 26 27  2  0  0  0
 21 16  1  0  0  0
 26 22  1  0  0  0
  7  1  1  0  0  0
 35 30  1  0  0  0
 13 14  1  0  0  0
  9 11  1  0  0  0
  9 12  1  0  0  0
M  END
> <minimizedAffinity>
-6.75784

> <CNNscore>
0.0628119037

> <CNNaffinity>
5.8541612625

> <CNN_VS>
0.3677110076

> <CNNaffinity_variance>
0.1891433895

$$$$
[H]c1nc(OC([H])([H])C([H])([H])[H])c([H])c([H])c1-c1c(OC([H])([H])C2([H])C([H])([H])OC([H])([H])C2([H])[H])nc2sc(N([H])C(=O)C([H])([H])C([H])([H])OC([H])([H])[H])nc2c1[H]


 33 36  0  0  0  0  0  0  0  0999 V2000
  -86.4825   29.2686    0.6973 C   0  0  0  0  0  0  0  0  0  0  0  0
  -86.5321   30.5514    0.3561 N   0  0  0  0  0  0  0  0  0  0  0  0
  -87.0726   30.8919   -0.7667 C   0  0  0  0  0  0  0  0  0  0  0  0
  -87.2094   32.1975   -1.2825 C   0  0  0  0  0  0  0  0  0  0  0  0
  -87.8044   32.4136   -2.4883 C   0  0  0  0  0  0  0  0  0  0  0  0
  -88.3056   31.3864   -3.2744 C   0  0  0  0  0  0  0  0  0  0  0  0
  -88.1730   30.1425   -2.7782 N   0  0  0  0  0  0  0  0  0  0  0  0
  -87.5779   29.9031   -1.5677 C   0  0  0  0  0  0  0  0  0  0  0  0
  -87.2348   28.5139   -0.6316 S   0  0  0  0  0  0  0  0  0  0  0  0
  -87.9544   33.7786   -3.0306 C   0  0  0  0  0  0  0  0  0  0  0  0
  -86.9689   34.4244   -3.7290 C   0  0  0  0  0  0  0  0  0  0  0  0
  -87.2049   35.7244   -4.2013 C   0  0  0  0  0  0  0  0  0  0  0  0
  -88.4033   36.3712   -3.9817 C   0  0  0  0  0  0  0  0  0  0  0  0
  -89.3432   35.7010   -3.2918 N   0  0  0  0  0  0  0  0  0  0  0  0
  -89.1441   34.4383   -2.8204 C   0  0  0  0  0  0  0  0  0  0  0  0
  -88.5687   37.6513   -4.4749 O   0  0  0  0  0  0  0  0  0  0  0  0
  -88.9660   38.7522   -3.7108 C   0  0  0  0  0  0  0  0  0  0  0  0
  -87.8039   39.0884   -2.7768 C   0  0  0  0  0  0  0  0  0  0  0  0
  -84.5395   28.8609    2.2274 C   0  0  0  0  0  0  0  0  0  0  0  0
  -84.1897   28.3752    3.3478 O   0  0  0  0  0  0  0  0  0  0  0  0
  -85.8982   28.7402    1.9076 N   0  0  0  0  0  0  0  0  0  0  0  0
  -86.5621   28.2576    2.5901 H   0  0  0  0  0  0  0  0  0  0  0  0
  -83.5780   29.4882    1.3653 C   0  0  0  0  0  0  0  0  0  0  0  0
  -83.2542   30.9228    1.5924 C   0  0  0  0  0  0  0  0  0  0  0  0
  -83.3306   32.4059   -0.3061 C   0  0  0  0  0  0  0  0  0  0  0  0
  -82.7744   31.6213    0.5948 O   0  0  0  0  0  0  0  0  0  0  0  0
  -88.9084   31.6253   -4.5015 O   0  0  0  0  0  0  0  0  0  0  0  0
  -90.1698   31.0609   -4.7261 C   0  0  0  0  0  0  0  0  0  0  0  0
  -91.2637   31.6837   -3.9211 C   0  0  0  0  0  0  0  0  0  0  0  0
  -92.3808   32.2446   -4.7512 C   0  0  0  0  0  0  0  0  0  0  0  0
  -93.5560   32.1090   -3.8289 C   0  0  0  0  0  0  0  0  0  0  0  0
  -93.2758   31.1640   -2.8871 O   0  0  0  0  0  0  0  0  0  0  0  0
  -91.9856   30.7307   -3.0296 C   0  0  0  0  0  0  0  0  0  0  0  0
 25 26  1  0  0  0
 26 24  1  0  0  0
 24 23  1  0  0  0
 23 19  1  0  0  0
 19 20  2  0  0  0
 19 21  1  0  0  0
 21  1  1  0  0  0
  1  2  2  0  0  0
  2  3  1  0  0  0
  3  4  2  0  0  0
  4  5  1  0  0  0
  5 10  1  0  0  0
 10 11  2  0  0  0
 11 12  1  0  0  0
 12 13  2  0  0  0
 13 16  1  0  0  0
 16 17  1  0  0  0
 17 18  1  0  0  0
 13 14  1  0  0  0
 14 15  2  0  0  0
  5  6  2  0  0  0
  6 27  1  0  0  0
 27 28  1  0  0  0
 28 29  1  0  0  0
 29 30  1  0  0  0
 30 31  1  0  0  0
 31 32  1  0  0  0
 32 33  1  0  0  0
  6  7  1  0  0  0
  7  8  2  0  0  0
  8  9  1  0  0  0
  9  1  1  0  0  0
  8  3  1  0  0  0
 15 10  1  0  0  0
 33 29  1  0  0  0
 21 22  1  0  0  0
M  END
> <minimizedAffinity>
-6.71581

> <CNNscore>
0.4145790040

> <CNNaffinity>
6.6437606812

> <CNN_VS>
2.7543637753

> <CNNaffinity_variance>
0.0708867237

$$$$
[H]c1nc(OC([H])([H])C([H])([H])[H])c([H])c([H])c1-c1c(OC([H])([H])C2([H])C([H])([H])OC([H])([H])C2([H])[H])nc2sc(N([H])C(=O)C([H])([H])C([H])([H])OC([H])([H])[H])nc2c1[H]


 33 36  0  0  0  0  0  0  0  0999 V2000
  -84.5925   30.7523    0.4797 C   0  0  0  0  0  0  0  0  0  0  0  0
  -85.6185   30.3146   -0.2416 N   0  0  0  0  0  0  0  0  0  0  0  0
  -86.2905   29.2882    0.1630 C   0  0  0  0  0  0  0  0  0  0  0  0
  -87.4000   28.6942   -0.4737 C   0  0  0  0  0  0  0  0  0  0  0  0
  -88.0174   27.6079    0.0680 C   0  0  0  0  0  0  0  0  0  0  0  0
  -87.6058   27.0241    1.2572 C   0  0  0  0  0  0  0  0  0  0  0  0
  -86.5469   27.5943    1.8611 N   0  0  0  0  0  0  0  0  0  0  0  0
  -85.9115   28.6873    1.3335 C   0  0  0  0  0  0  0  0  0  0  0  0
  -84.5811   29.6608    1.7874 S   0  0  0  0  0  0  0  0  0  0  0  0
  -89.1822   26.9852   -0.5920 C   0  0  0  0  0  0  0  0  0  0  0  0
  -89.0873   25.8971   -1.4184 C   0  0  0  0  0  0  0  0  0  0  0  0
  -90.2528   25.3789   -2.0033 C   0  0  0  0  0  0  0  0  0  0  0  0
  -91.4930   25.9353   -1.7690 C   0  0  0  0  0  0  0  0  0  0  0  0
  -91.5408   27.0020   -0.9514 N   0  0  0  0  0  0  0  0  0  0  0  0
  -90.4273   27.5280   -0.3687 C   0  0  0  0  0  0  0  0  0  0  0  0
  -92.5996   25.3746   -2.3775 O   0  0  0  0  0  0  0  0  0  0  0  0
  -92.5832   24.1918   -3.1222 C   0  0  0  0  0  0  0  0  0  0  0  0
  -93.6056   24.3592   -4.2458 C   0  0  0  0  0  0  0  0  0  0  0  0
  -84.2291   33.0857   -0.3603 C   0  0  0  0  0  0  0  0  0  0  0  0
  -83.3575   33.9863   -0.5671 O   0  0  0  0  0  0  0  0  0  0  0  0
  -83.7446   31.8726    0.1463 N   0  0  0  0  0  0  0  0  0  0  0  0
  -82.6992   31.7540    0.3272 H   0  0  0  0  0  0  0  0  0  0  0  0
  -85.6166   33.3273   -0.6388 C   0  0  0  0  0  0  0  0  0  0  0  0
  -86.0380   33.4735   -2.0585 C   0  0  0  0  0  0  0  0  0  0  0  0
  -87.5949   32.6008   -3.6785 C   0  0  0  0  0  0  0  0  0  0  0  0
  -87.0007   32.7085   -2.5072 O   0  0  0  0  0  0  0  0  0  0  0  0
  -88.2468   25.9164    1.7942 O   0  0  0  0  0  0  0  0  0  0  0  0
  -89.1097   26.1268    2.8764 C   0  0  0  0  0  0  0  0  0  0  0  0
  -90.4331   25.4475    2.7364 C   0  0  0  0  0  0  0  0  0  0  0  0
  -90.4510   24.3676    1.6948 C   0  0  0  0  0  0  0  0  0  0  0  0
  -91.4968   23.4340    2.2284 C   0  0  0  0  0  0  0  0  0  0  0  0
  -91.6462   23.6508    3.5660 O   0  0  0  0  0  0  0  0  0  0  0  0
  -90.8750   24.7119    3.9562 C   0  0  0  0  0  0  0  0  0  0  0  0
 25 26  1  0  0  0
 26 24  1  0  0  0
 24 23  1  0  0  0
 23 19  1  0  0  0
 19 20  2  0  0  0
 19 21  1  0  0  0
 21  1  1  0  0  0
  1  2  2  0  0  0
  2  3  1  0  0  0
  3  4  2  0  0  0
  4  5  1  0  0  0
  5 10  1  0  0  0
 10 11  2  0  0  0
 11 12  1  0  0  0
 12 13  2  0  0  0
 13 16  1  0  0  0
 16 17  1  0  0  0
 17 18  1  0  0  0
 13 14  1  0  0  0
 14 15  2  0  0  0
  5  6  2  0  0  0
  6 27  1  0  0  0
 27 28  1  0  0  0
 28 29  1  0  0  0
 29 30  1  0  0  0
 30 31  1  0  0  0
 31 32  1  0  0  0
 32 33  1  0  0  0
  6  7  1  0  0  0
  7  8  2  0  0  0
  8  9  1  0  0  0
  9  1  1  0  0  0
  8  3  1  0  0  0
 15 10  1  0  0  0
 33 29  1  0  0  0
 21 22  1  0  0  0
M  END
> <minimizedAffinity>
-7.15944

> <CNNscore>
0.2104581743

> <CNNaffinity>
6.4818534851

> <CNN_VS>
1.3641591072

> <CNNaffinity_variance>
0.2323925793

$$$$
[H]c1nc(OC([H])([H])C([H])([H])[H])c([H])c([H])c1-c1c(OC([H])([H])C2([H])C([H])([H])OC([H])([H])C2([H])[H])nc2sc(N([H])C(=O)C([H])([H])C([H])([H])OC([H])([H])[H])nc2c1[H]


 33 36  0  0  0  0  0  0  0  0999 V2000
  -86.1886   30.3720    0.5575 C   0  0  0  0  0  0  0  0  0  0  0  0
  -86.2762   31.6140    0.0949 N   0  0  0  0  0  0  0  0  0  0  0  0
  -86.9452   31.8462   -0.9855 C   0  0  0  0  0  0  0  0  0  0  0  0
  -87.1399   33.0945   -1.6126 C   0  0  0  0  0  0  0  0  0  0  0  0
  -87.8731   33.1952   -2.7559 C   0  0  0  0  0  0  0  0  0  0  0  0
  -88.4655   32.1004   -3.3683 C   0  0  0  0  0  0  0  0  0  0  0  0
  -88.2770   30.9116   -2.7663 N   0  0  0  0  0  0  0  0  0  0  0  0
  -87.5433   30.7882   -1.6160 C   0  0  0  0  0  0  0  0  0  0  0  0
  -87.0941   29.4967   -0.5894 S   0  0  0  0  0  0  0  0  0  0  0  0
  -88.0839   34.5000   -3.4137 C   0  0  0  0  0  0  0  0  0  0  0  0
  -89.1595   35.3082   -3.1569 C   0  0  0  0  0  0  0  0  0  0  0  0
  -89.2747   36.5302   -3.8369 C   0  0  0  0  0  0  0  0  0  0  0  0
  -88.3337   36.9410   -4.7580 C   0  0  0  0  0  0  0  0  0  0  0  0
  -87.2938   36.1175   -4.9796 N   0  0  0  0  0  0  0  0  0  0  0  0
  -87.1542   34.9251   -4.3354 C   0  0  0  0  0  0  0  0  0  0  0  0
  -88.5088   38.1564   -5.3914 O   0  0  0  0  0  0  0  0  0  0  0  0
  -89.5033   38.4240   -6.3365 C   0  0  0  0  0  0  0  0  0  0  0  0
  -89.1102   37.6876   -7.6168 C   0  0  0  0  0  0  0  0  0  0  0  0
  -85.2811   28.6217    2.1052 C   0  0  0  0  0  0  0  0  0  0  0  0
  -84.5894   28.4255    3.1525 O   0  0  0  0  0  0  0  0  0  0  0  0
  -85.4661   29.9612    1.7385 N   0  0  0  0  0  0  0  0  0  0  0  0
  -85.0391   30.7372    2.3342 H   0  0  0  0  0  0  0  0  0  0  0  0
  -85.8255   27.5180    1.3659 C   0  0  0  0  0  0  0  0  0  0  0  0
  -86.8742   26.6828    2.0117 C   0  0  0  0  0  0  0  0  0  0  0  0
  -89.0720   27.2619    2.8144 C   0  0  0  0  0  0  0  0  0  0  0  0
  -88.1225   27.0662    1.9218 O   0  0  0  0  0  0  0  0  0  0  0  0
  -89.2088   32.2218   -4.5339 O   0  0  0  0  0  0  0  0  0  0  0  0
  -90.6027   32.1471   -4.4259 C   0  0  0  0  0  0  0  0  0  0  0  0
  -91.3328   33.0024   -5.4098 C   0  0  0  0  0  0  0  0  0  0  0  0
  -92.2259   34.0271   -4.7743 C   0  0  0  0  0  0  0  0  0  0  0  0
  -92.2240   35.1234   -5.7981 C   0  0  0  0  0  0  0  0  0  0  0  0
  -91.1239   34.9889   -6.5921 O   0  0  0  0  0  0  0  0  0  0  0  0
  -90.4468   33.8464   -6.2624 C   0  0  0  0  0  0  0  0  0  0  0  0
 25 26  1  0  0  0
 26 24  1  0  0  0
 24 23  1  0  0  0
 23 19  1  0  0  0
 19 20  2  0  0  0
 19 21  1  0  0  0
 21  1  1  0  0  0
  1  2  2  0  0  0
  2  3  1  0  0  0
  3  4  2  0  0  0
  4  5  1  0  0  0
  5 10  1  0  0  0
 10 11  2  0  0  0
 11 12  1  0  0  0
 12 13  2  0  0  0
 13 16  1  0  0  0
 16 17  1  0  0  0
 17 18  1  0  0  0
 13 14  1  0  0  0
 14 15  2  0  0  0
  5  6  2  0  0  0
  6 27  1  0  0  0
 27 28  1  0  0  0
 28 29  1  0  0  0
 29 30  1  0  0  0
 30 31  1  0  0  0
 31 32  1  0  0  0
 32 33  1  0  0  0
  6  7  1  0  0  0
  7  8  2  0  0  0
  8  9  1  0  0  0
  9  1  1  0  0  0
  8  3  1  0  0  0
 15 10  1  0  0  0
 33 29  1  0  0  0
 21 22  1  0  0  0
M  END
> <minimizedAffinity>
-6.12280

> <CNNscore>
0.1172362864

> <CNNaffinity>
6.2518200874

> <CNN_VS>
0.7329401970

> <CNNaffinity_variance>
0.2390233576

$$$$
[H]c1nc(OC([H])([H])C([H])([H])[H])c([H])c([H])c1-c1c(OC([H])([H])C2([H])C([H])([H])OC([H])([H])C2([H])[H])nc2sc(N([H])C(=O)C([H])([H])C([H])([H])OC([H])([H])[H])nc2c1[H]


 33 36  0  0  0  0  0  0  0  0999 V2000
  -86.1470   31.6007   -0.3364 C   0  0  0  0  0  0  0  0  0  0  0  0
  -87.0987   31.2373   -1.1889 N   0  0  0  0  0  0  0  0  0  0  0  0
  -87.7795   30.1627   -0.9641 C   0  0  0  0  0  0  0  0  0  0  0  0
  -88.8181   29.6332   -1.7580 C   0  0  0  0  0  0  0  0  0  0  0  0
  -89.4547   28.4838   -1.3998 C   0  0  0  0  0  0  0  0  0  0  0  0
  -89.1320   27.7709   -0.2544 C   0  0  0  0  0  0  0  0  0  0  0  0
  -88.1405   28.2800    0.5000 N   0  0  0  0  0  0  0  0  0  0  0  0
  -87.4872   29.4345    0.1580 C   0  0  0  0  0  0  0  0  0  0  0  0
  -86.2217   30.3649    0.8336 S   0  0  0  0  0  0  0  0  0  0  0  0
  -90.5457   27.9279   -2.2247 C   0  0  0  0  0  0  0  0  0  0  0  0
  -90.4413   26.7517   -2.9187 C   0  0  0  0  0  0  0  0  0  0  0  0
  -91.5333   26.3072   -3.6795 C   0  0  0  0  0  0  0  0  0  0  0  0
  -92.7106   27.0225   -3.7483 C   0  0  0  0  0  0  0  0  0  0  0  0
  -92.7704   28.1713   -3.0517 N   0  0  0  0  0  0  0  0  0  0  0  0
  -91.7275   28.6292   -2.3041 C   0  0  0  0  0  0  0  0  0  0  0  0
  -93.7466   26.5269   -4.5166 O   0  0  0  0  0  0  0  0  0  0  0  0
  -94.3788   27.2292   -5.5466 C   0  0  0  0  0  0  0  0  0  0  0  0
  -93.3300   27.4658   -6.6329 C   0  0  0  0  0  0  0  0  0  0  0  0
  -83.9000   32.7086   -0.4113 C   0  0  0  0  0  0  0  0  0  0  0  0
  -83.2971   33.8140   -0.5792 O   0  0  0  0  0  0  0  0  0  0  0  0
  -85.2990   32.7624   -0.4647 N   0  0  0  0  0  0  0  0  0  0  0  0
  -85.7869   33.6968   -0.6328 H   0  0  0  0  0  0  0  0  0  0  0  0
  -83.1644   31.4970   -0.1830 C   0  0  0  0  0  0  0  0  0  0  0  0
  -82.7332   31.1825    1.2062 C   0  0  0  0  0  0  0  0  0  0  0  0
  -83.0398   28.9883    2.1555 C   0  0  0  0  0  0  0  0  0  0  0  0
  -82.4176   29.9462    1.4984 O   0  0  0  0  0  0  0  0  0  0  0  0
  -89.7912   26.6006    0.0947 O   0  0  0  0  0  0  0  0  0  0  0  0
  -90.7694   26.6794    1.0933 C   0  0  0  0  0  0  0  0  0  0  0  0
  -90.2758   26.3108    2.4545 C   0  0  0  0  0  0  0  0  0  0  0  0
  -90.6145   27.3184    3.5136 C   0  0  0  0  0  0  0  0  0  0  0  0
  -90.7053   26.4634    4.7428 C   0  0  0  0  0  0  0  0  0  0  0  0
  -90.9211   25.1699    4.3702 O   0  0  0  0  0  0  0  0  0  0  0  0
  -90.8785   25.0633    3.0066 C   0  0  0  0  0  0  0  0  0  0  0  0
 25 26  1  0  0  0
 26 24  1  0  0  0
 24 23  1  0  0  0
 23 19  1  0  0  0
 19 20  2  0  0  0
 19 21  1  0  0  0
 21  1  1  0  0  0
  1  2  2  0  0  0
  2  3  1  0  0  0
  3  4  2  0  0  0
  4  5  1  0  0  0
  5 10  1  0  0  0
 10 11  2  0  0  0
 11 12  1  0  0  0
 12 13  2  0  0  0
 13 16  1  0  0  0
 16 17  1  0  0  0
 17 18  1  0  0  0
 13 14  1  0  0  0
 14 15  2  0  0  0
  5  6  2  0  0  0
  6 27  1  0  0  0
 27 28  1  0  0  0
 28 29  1  0  0  0
 29 30  1  0  0  0
 30 31  1  0  0  0
 31 32  1  0  0  0
 32 33  1  0  0  0
  6  7  1  0  0  0
  7  8  2  0  0  0
  8  9  1  0  0  0
  9  1  1  0  0  0
  8  3  1  0  0  0
 15 10  1  0  0  0
 33 29  1  0  0  0
 21 22  1  0  0  0
M  END
> <minimizedAffinity>
-7.15500

> <CNNscore>
0.1102482378

> <CNNaffinity>
6.1965637207

> <CNN_VS>
0.6831602454

> <CNNaffinity_variance>
0.0998346657

$$$$
[H]c1nc(OC([H])([H])C([H])([H])[H])c([H])c([H])c1-c1c(OC([H])([H])C2([H])C([H])([H])OC([H])([H])C2([H])[H])nc2sc(N([H])C(=O)C([H])([H])C([H])([H])OC([H])([H])[H])nc2c1[H]


 33 36  0  0  0  0  0  0  0  0999 V2000
  -87.9683   34.3828   -4.5887 C   0  0  0  0  0  0  0  0  0  0  0  0
  -88.2605   33.1093   -4.3497 N   0  0  0  0  0  0  0  0  0  0  0  0
  -87.8613   32.5589   -3.2512 C   0  0  0  0  0  0  0  0  0  0  0  0
  -88.0810   31.2281   -2.8390 C   0  0  0  0  0  0  0  0  0  0  0  0
  -87.5998   30.7774   -1.6473 C   0  0  0  0  0  0  0  0  0  0  0  0
  -86.8765   31.5794   -0.7766 C   0  0  0  0  0  0  0  0  0  0  0  0
  -86.6695   32.8483   -1.1742 N   0  0  0  0  0  0  0  0  0  0  0  0
  -87.1446   33.3218   -2.3686 C   0  0  0  0  0  0  0  0  0  0  0  0
  -87.0900   34.8175   -3.1954 S   0  0  0  0  0  0  0  0  0  0  0  0
  -87.8310   29.3867   -1.2088 C   0  0  0  0  0  0  0  0  0  0  0  0
  -86.9350   28.3720   -1.4176 C   0  0  0  0  0  0  0  0  0  0  0  0
  -87.2472   27.0804   -0.9669 C   0  0  0  0  0  0  0  0  0  0  0  0
  -88.4328   26.8035   -0.3186 C   0  0  0  0  0  0  0  0  0  0  0  0
  -89.2836   27.8285   -0.1344 N   0  0  0  0  0  0  0  0  0  0  0  0
  -89.0092   29.0932   -0.5602 C   0  0  0  0  0  0  0  0  0  0  0  0
  -88.6764   25.5090    0.0988 O   0  0  0  0  0  0  0  0  0  0  0  0
  -89.8101   24.7648   -0.2398 C   0  0  0  0  0  0  0  0  0  0  0  0
  -89.7744   24.5637   -1.7544 C   0  0  0  0  0  0  0  0  0  0  0  0
  -89.4977   35.8947   -5.8761 C   0  0  0  0  0  0  0  0  0  0  0  0
  -89.6550   36.5163   -6.9728 O   0  0  0  0  0  0  0  0  0  0  0  0
  -88.3326   35.1233   -5.7737 N   0  0  0  0  0  0  0  0  0  0  0  0
  -87.6495   35.0845   -6.5930 H   0  0  0  0  0  0  0  0  0  0  0  0
  -90.4719   35.9971   -4.8265 C   0  0  0  0  0  0  0  0  0  0  0  0
  -91.5490   34.9725   -4.7589 C   0  0  0  0  0  0  0  0  0  0  0  0
  -92.2643   32.9784   -5.9087 C   0  0  0  0  0  0  0  0  0  0  0  0
  -91.4091   33.8712   -5.4524 O   0  0  0  0  0  0  0  0  0  0  0  0
  -86.3931   31.1027    0.4339 O   0  0  0  0  0  0  0  0  0  0  0  0
  -85.1753   31.6172    0.8946 C   0  0  0  0  0  0  0  0  0  0  0  0
  -84.4822   30.7380    1.8842 C   0  0  0  0  0  0  0  0  0  0  0  0
  -85.1148   29.3862    2.0388 C   0  0  0  0  0  0  0  0  0  0  0  0
  -83.9426   28.5332    2.4240 C   0  0  0  0  0  0  0  0  0  0  0  0
  -82.7934   29.1524    2.0310 O   0  0  0  0  0  0  0  0  0  0  0  0
  -83.0811   30.3863    1.5138 C   0  0  0  0  0  0  0  0  0  0  0  0
 25 26  1  0  0  0
 26 24  1  0  0  0
 24 23  1  0  0  0
 23 19  1  0  0  0
 19 20  2  0  0  0
 19 21  1  0  0  0
 21  1  1  0  0  0
  1  2  2  0  0  0
  2  3  1  0  0  0
  3  4  2  0  0  0
  4  5  1  0  0  0
  5 10  1  0  0  0
 10 11  2  0  0  0
 11 12  1  0  0  0
 12 13  2  0  0  0
 13 16  1  0  0  0
 16 17  1  0  0  0
 17 18  1  0  0  0
 13 14  1  0  0  0
 14 15  2  0  0  0
  5  6  2  0  0  0
  6 27  1  0  0  0
 27 28  1  0  0  0
 28 29  1  0  0  0
 29 30  1  0  0  0
 30 31  1  0  0  0
 31 32  1  0  0  0
 32 33  1  0  0  0
  6  7  1  0  0  0
  7  8  2  0  0  0
  8  9  1  0  0  0
  9  1  1  0  0  0
  8  3  1  0  0  0
 15 10  1  0  0  0
 33 29  1  0  0  0
 21 22  1  0  0  0
M  END
> <minimizedAffinity>
-7.06164

> <CNNscore>
0.0773877576

> <CNNaffinity>
6.0521178246

> <CNN_VS>
0.4683598280

> <CNNaffinity_variance>
0.2691541612

$$$$
[H]c1nc(OC([H])([H])C([H])([H])[H])c([H])c([H])c1-c1c(OC([H])([H])C2([H])C([H])([H])OC([H])([H])C2([H])[H])nc2sc(N([H])C(=O)C([H])([H])C([H])([H])OC([H])([H])[H])nc2c1[H]


 33 36  0  0  0  0  0  0  0  0999 V2000
  -87.0471   28.4766   -0.3055 C   0  0  0  0  0  0  0  0  0  0  0  0
  -86.9803   29.7950   -0.4525 N   0  0  0  0  0  0  0  0  0  0  0  0
  -87.5184   30.3491   -1.4880 C   0  0  0  0  0  0  0  0  0  0  0  0
  -87.5412   31.7244   -1.8003 C   0  0  0  0  0  0  0  0  0  0  0  0
  -88.1483   32.1734   -2.9336 C   0  0  0  0  0  0  0  0  0  0  0  0
  -88.7721   31.3271   -3.8386 C   0  0  0  0  0  0  0  0  0  0  0  0
  -88.7479   30.0159   -3.5364 N   0  0  0  0  0  0  0  0  0  0  0  0
  -88.1428   29.5431   -2.4019 C   0  0  0  0  0  0  0  0  0  0  0  0
  -87.9102   28.0033   -1.6957 S   0  0  0  0  0  0  0  0  0  0  0  0
  -88.1793   33.6124   -3.2628 C   0  0  0  0  0  0  0  0  0  0  0  0
  -89.2042   34.4460   -2.9016 C   0  0  0  0  0  0  0  0  0  0  0  0
  -89.1450   35.8001   -3.2650 C   0  0  0  0  0  0  0  0  0  0  0  0
  -88.0819   36.3158   -3.9766 C   0  0  0  0  0  0  0  0  0  0  0  0
  -87.0974   35.4628   -4.3106 N   0  0  0  0  0  0  0  0  0  0  0  0
  -87.1262   34.1433   -3.9726 C   0  0  0  0  0  0  0  0  0  0  0  0
  -88.0875   37.6588   -4.3015 O   0  0  0  0  0  0  0  0  0  0  0  0
  -86.9967   38.5188   -4.1458 C   0  0  0  0  0  0  0  0  0  0  0  0
  -87.2263   39.2990   -2.8518 C   0  0  0  0  0  0  0  0  0  0  0  0
  -87.2449   26.9386    1.6637 C   0  0  0  0  0  0  0  0  0  0  0  0
  -86.5925   26.3040    2.5499 O   0  0  0  0  0  0  0  0  0  0  0  0
  -86.4814   27.7204    0.7869 N   0  0  0  0  0  0  0  0  0  0  0  0
  -85.4202   27.7559    0.8966 H   0  0  0  0  0  0  0  0  0  0  0  0
  -88.6754   26.8397    1.5918 C   0  0  0  0  0  0  0  0  0  0  0  0
  -89.4862   27.5599    2.6108 C   0  0  0  0  0  0  0  0  0  0  0  0
  -90.0530   27.2903    4.9381 C   0  0  0  0  0  0  0  0  0  0  0  0
  -89.8484   26.9158    3.6913 O   0  0  0  0  0  0  0  0  0  0  0  0
  -89.3854   31.8025   -4.9892 O   0  0  0  0  0  0  0  0  0  0  0  0
  -90.7850   31.8276   -5.0162 C   0  0  0  0  0  0  0  0  0  0  0  0
  -91.3584   33.1299   -5.4719 C   0  0  0  0  0  0  0  0  0  0  0  0
  -90.4419   33.9149   -6.3637 C   0  0  0  0  0  0  0  0  0  0  0  0
  -91.4114   34.6836   -7.2117 C   0  0  0  0  0  0  0  0  0  0  0  0
  -92.6208   34.0549   -7.1861 O   0  0  0  0  0  0  0  0  0  0  0  0
  -92.5794   32.9978   -6.3180 C   0  0  0  0  0  0  0  0  0  0  0  0
 25 26  1  0  0  0
 26 24  1  0  0  0
 24 23  1  0  0  0
 23 19  1  0  0  0
 19 20  2  0  0  0
 19 21  1  0  0  0
 21  1  1  0  0  0
  1  2  2  0  0  0
  2  3  1  0  0  0
  3  4  2  0  0  0
  4  5  1  0  0  0
  5 10  1  0  0  0
 10 11  2  0  0  0
 11 12  1  0  0  0
 12 13  2  0  0  0
 13 16  1  0  0  0
 16 17  1  0  0  0
 17 18  1  0  0  0
 13 14  1  0  0  0
 14 15  2  0  0  0
  5  6  2  0  0  0
  6 27  1  0  0  0
 27 28  1  0  0  0
 28 29  1  0  0  0
 29 30  1  0  0  0
 30 31  1  0  0  0
 31 32  1  0  0  0
 32 33  1  0  0  0
  6  7  1  0  0  0
  7  8  2  0  0  0
  8  9  1  0  0  0
  9  1  1  0  0  0
  8  3  1  0  0  0
 15 10  1  0  0  0
 33 29  1  0  0  0
 21 22  1  0  0  0
M  END
> <minimizedAffinity>
-6.17343

> <CNNscore>
0.0768442228

> <CNNaffinity>
6.0539107323

> <CNN_VS>
0.4652080536

> <CNNaffinity_variance>
0.2119826525

$$$$
[H]c1nc(OC([H])([H])C([H])([H])[H])c([H])c([H])c1-c1c(OC([H])([H])C2([H])C([H])([H])OC([H])([H])C2([H])[H])nc2sc(N([H])C(=O)C([H])([H])C([H])([H])OC([H])([H])[H])nc2c1[H]


 33 36  0  0  0  0  0  0  0  0999 V2000
  -86.2781   27.7513    1.2871 C   0  0  0  0  0  0  0  0  0  0  0  0
  -86.1502   28.7780    0.4542 N   0  0  0  0  0  0  0  0  0  0  0  0
  -87.2014   29.2820   -0.1026 C   0  0  0  0  0  0  0  0  0  0  0  0
  -87.2484   30.3649   -1.0050 C   0  0  0  0  0  0  0  0  0  0  0  0
  -88.4340   30.7953   -1.5188 C   0  0  0  0  0  0  0  0  0  0  0  0
  -89.6499   30.2104   -1.1964 C   0  0  0  0  0  0  0  0  0  0  0  0
  -89.6000   29.1776   -0.3350 N   0  0  0  0  0  0  0  0  0  0  0  0
  -88.4184   28.7289    0.1934 C   0  0  0  0  0  0  0  0  0  0  0  0
  -87.9613   27.4900    1.2797 S   0  0  0  0  0  0  0  0  0  0  0  0
  -88.4893   31.9314   -2.4600 C   0  0  0  0  0  0  0  0  0  0  0  0
  -88.7847   33.2130   -2.0776 C   0  0  0  0  0  0  0  0  0  0  0  0
  -88.8174   34.2260   -3.0480 C   0  0  0  0  0  0  0  0  0  0  0  0
  -88.5600   33.9670   -4.3781 C   0  0  0  0  0  0  0  0  0  0  0  0
  -88.2742   32.6955   -4.7100 N   0  0  0  0  0  0  0  0  0  0  0  0
  -88.2349   31.6903   -3.7911 C   0  0  0  0  0  0  0  0  0  0  0  0
  -88.6091   35.0117   -5.2811 O   0  0  0  0  0  0  0  0  0  0  0  0
  -87.6610   36.0353   -5.3646 C   0  0  0  0  0  0  0  0  0  0  0  0
  -87.5828   36.4506   -6.8334 C   0  0  0  0  0  0  0  0  0  0  0  0
  -84.0900   27.7446    2.5096 C   0  0  0  0  0  0  0  0  0  0  0  0
  -83.2434   27.0127    3.1105 O   0  0  0  0  0  0  0  0  0  0  0  0
  -85.1969   27.0782    1.9678 N   0  0  0  0  0  0  0  0  0  0  0  0
  -85.2807   26.0192    2.0722 H   0  0  0  0  0  0  0  0  0  0  0  0
  -83.8954   29.1635    2.4091 C   0  0  0  0  0  0  0  0  0  0  0  0
  -82.6816   29.6630    1.7078 C   0  0  0  0  0  0  0  0  0  0  0  0
  -83.6233   31.8118    1.1551 C   0  0  0  0  0  0  0  0  0  0  0  0
  -82.7156   30.8566    1.1717 O   0  0  0  0  0  0  0  0  0  0  0  0
  -90.8486   30.6619   -1.7304 O   0  0  0  0  0  0  0  0  0  0  0  0
  -91.9233   29.7650   -1.7639 C   0  0  0  0  0  0  0  0  0  0  0  0
  -92.5749   29.6509   -3.1036 C   0  0  0  0  0  0  0  0  0  0  0  0
  -92.1709   30.7287   -4.0661 C   0  0  0  0  0  0  0  0  0  0  0  0
  -92.3114   30.0367   -5.3895 C   0  0  0  0  0  0  0  0  0  0  0  0
  -92.2682   28.6883   -5.1933 O   0  0  0  0  0  0  0  0  0  0  0  0
  -92.2176   28.4125   -3.8539 C   0  0  0  0  0  0  0  0  0  0  0  0
 25 26  1  0  0  0
 26 24  1  0  0  0
 24 23  1  0  0  0
 23 19  1  0  0  0
 19 20  2  0  0  0
 19 21  1  0  0  0
 21  1  1  0  0  0
  1  2  2  0  0  0
  2  3  1  0  0  0
  3  4  2  0  0  0
  4  5  1  0  0  0
  5 10  1  0  0  0
 10 11  2  0  0  0
 11 12  1  0  0  0
 12 13  2  0  0  0
 13 16  1  0  0  0
 16 17  1  0  0  0
 17 18  1  0  0  0
 13 14  1  0  0  0
 14 15  2  0  0  0
  5  6  2  0  0  0
  6 27  1  0  0  0
 27 28  1  0  0  0
 28 29  1  0  0  0
 29 30  1  0  0  0
 30 31  1  0  0  0
 31 32  1  0  0  0
 32 33  1  0  0  0
  6  7  1  0  0  0
  7  8  2  0  0  0
  8  9  1  0  0  0
  9  1  1  0  0  0
  8  3  1  0  0  0
 15 10  1  0  0  0
 33 29  1  0  0  0
 21 22  1  0  0  0
M  END
> <minimizedAffinity>
-7.41964

> <CNNscore>
0.0760722086

> <CNNaffinity>
6.1039018631

> <CNN_VS>
0.4643372893

> <CNNaffinity_variance>
0.2584799230

$$$$
[H]c1nc(OC([H])([H])C([H])([H])[H])c([H])c([H])c1-c1c(OC([H])([H])C2([H])C([H])([H])OC([H])([H])C2([H])[H])nc2sc(N([H])C(=O)C([H])([H])C([H])([H])OC([H])([H])[H])nc2c1[H]


 33 36  0  0  0  0  0  0  0  0999 V2000
  -91.2731   28.7256   -0.8665 C   0  0  0  0  0  0  0  0  0  0  0  0
  -91.2465   29.7388   -1.7250 N   0  0  0  0  0  0  0  0  0  0  0  0
  -90.2403   30.5491   -1.7238 C   0  0  0  0  0  0  0  0  0  0  0  0
  -90.0501   31.6687   -2.5604 C   0  0  0  0  0  0  0  0  0  0  0  0
  -88.9342   32.4415   -2.4501 C   0  0  0  0  0  0  0  0  0  0  0  0
  -87.9304   32.1859   -1.5273 C   0  0  0  0  0  0  0  0  0  0  0  0
  -88.1163   31.1167   -0.7314 N   0  0  0  0  0  0  0  0  0  0  0  0
  -89.2312   30.3261   -0.8258 C   0  0  0  0  0  0  0  0  0  0  0  0
  -89.8083   28.9318   -0.0218 S   0  0  0  0  0  0  0  0  0  0  0  0
  -88.7278   33.6117   -3.3265 C   0  0  0  0  0  0  0  0  0  0  0  0
  -89.1795   34.8688   -3.0237 C   0  0  0  0  0  0  0  0  0  0  0  0
  -88.9376   35.9177   -3.9238 C   0  0  0  0  0  0  0  0  0  0  0  0
  -88.2567   35.7180   -5.1066 C   0  0  0  0  0  0  0  0  0  0  0  0
  -87.8307   34.4687   -5.3644 N   0  0  0  0  0  0  0  0  0  0  0  0
  -88.0501   33.4299   -4.5107 C   0  0  0  0  0  0  0  0  0  0  0  0
  -88.0532   36.7955   -5.9474 O   0  0  0  0  0  0  0  0  0  0  0  0
  -86.8468   37.4904   -6.0710 C   0  0  0  0  0  0  0  0  0  0  0  0
  -86.8762   38.1955   -7.4267 C   0  0  0  0  0  0  0  0  0  0  0  0
  -92.4790   26.6538   -1.5986 C   0  0  0  0  0  0  0  0  0  0  0  0
  -93.4423   25.8695   -1.3329 O   0  0  0  0  0  0  0  0  0  0  0  0
  -92.3336   27.7534   -0.7425 N   0  0  0  0  0  0  0  0  0  0  0  0
  -93.0161   27.8880    0.0672 H   0  0  0  0  0  0  0  0  0  0  0  0
  -91.6111   26.4012   -2.7140 C   0  0  0  0  0  0  0  0  0  0  0  0
  -91.9551   27.0071   -4.0290 C   0  0  0  0  0  0  0  0  0  0  0  0
  -93.6115   25.7770   -5.2753 C   0  0  0  0  0  0  0  0  0  0  0  0
  -93.1345   26.7620   -4.5413 O   0  0  0  0  0  0  0  0  0  0  0  0
  -86.8001   32.9851   -1.4286 O   0  0  0  0  0  0  0  0  0  0  0  0
  -86.0378   32.8899   -0.2581 C   0  0  0  0  0  0  0  0  0  0  0  0
  -84.8235   32.0300   -0.3948 C   0  0  0  0  0  0  0  0  0  0  0  0
  -83.5321   32.7824   -0.2622 C   0  0  0  0  0  0  0  0  0  0  0  0
  -82.6125   31.7332    0.2887 C   0  0  0  0  0  0  0  0  0  0  0  0
  -83.3568   30.7491    0.8685 O   0  0  0  0  0  0  0  0  0  0  0  0
  -84.6885   30.9895    0.6651 C   0  0  0  0  0  0  0  0  0  0  0  0
 25 26  1  0  0  0
 26 24  1  0  0  0
 24 23  1  0  0  0
 23 19  1  0  0  0
 19 20  2  0  0  0
 19 21  1  0  0  0
 21  1  1  0  0  0
  1  2  2  0  0  0
  2  3  1  0  0  0
  3  4  2  0  0  0
  4  5  1  0  0  0
  5 10  1  0  0  0
 10 11  2  0  0  0
 11 12  1  0  0  0
 12 13  2  0  0  0
 13 16  1  0  0  0
 16 17  1  0  0  0
 17 18  1  0  0  0
 13 14  1  0  0  0
 14 15  2  0  0  0
  5  6  2  0  0  0
  6 27  1  0  0  0
 27 28  1  0  0  0
 28 29  1  0  0  0
 29 30  1  0  0  0
 30 31  1  0  0  0
 31 32  1  0  0  0
 32 33  1  0  0  0
  6  7  1  0  0  0
  7  8  2  0  0  0
  8  9  1  0  0  0
  9  1  1  0  0  0
  8  3  1  0  0  0
 15 10  1  0  0  0
 33 29  1  0  0  0
 21 22  1  0  0  0
M  END
> <minimizedAffinity>
-6.13499

> <CNNscore>
0.0666271150

> <CNNaffinity>
5.8102602959

> <CNN_VS>
0.3871208727

> <CNNaffinity_variance>
0.1813331544

$$$$
[H]c1nc(OC([H])([H])C([H])([H])[H])c([H])c([H])c1-c1c(OC([H])([H])C2([H])C([H])([H])OC([H])([H])C2([H])[H])nc2sc(N([H])C(=O)C([H])([H])C([H])([H])OC([H])([H])[H])nc2c1[H]


 33 36  0  0  0  0  0  0  0  0999 V2000
  -86.5260   28.7676   -0.2233 C   0  0  0  0  0  0  0  0  0  0  0  0
  -86.5852   30.0754   -0.4479 N   0  0  0  0  0  0  0  0  0  0  0  0
  -87.2527   30.5187   -1.4612 C   0  0  0  0  0  0  0  0  0  0  0  0
  -87.4195   31.8655   -1.8454 C   0  0  0  0  0  0  0  0  0  0  0  0
  -88.1545   32.1927   -2.9442 C   0  0  0  0  0  0  0  0  0  0  0  0
  -88.7758   31.2440   -3.7432 C   0  0  0  0  0  0  0  0  0  0  0  0
  -88.6139   29.9603   -3.3726 N   0  0  0  0  0  0  0  0  0  0  0  0
  -87.8788   29.6095   -2.2712 C   0  0  0  0  0  0  0  0  0  0  0  0
  -87.4570   28.1405   -1.5045 S   0  0  0  0  0  0  0  0  0  0  0  0
  -88.3363   33.6011   -3.3479 C   0  0  0  0  0  0  0  0  0  0  0  0
  -87.3943   34.3137   -4.0414 C   0  0  0  0  0  0  0  0  0  0  0  0
  -87.6577   35.6506   -4.3765 C   0  0  0  0  0  0  0  0  0  0  0  0
  -88.8404   36.2681   -4.0267 C   0  0  0  0  0  0  0  0  0  0  0  0
  -89.7375   35.5322   -3.3468 N   0  0  0  0  0  0  0  0  0  0  0  0
  -89.5109   34.2325   -3.0069 C   0  0  0  0  0  0  0  0  0  0  0  0
  -89.0347   37.5874   -4.3886 O   0  0  0  0  0  0  0  0  0  0  0  0
  -88.1013   38.6099   -4.1967 C   0  0  0  0  0  0  0  0  0  0  0  0
  -88.7574   39.6460   -3.2846 C   0  0  0  0  0  0  0  0  0  0  0  0
  -86.3665   27.1396    1.6758 C   0  0  0  0  0  0  0  0  0  0  0  0
  -85.5924   26.6500    2.5560 O   0  0  0  0  0  0  0  0  0  0  0  0
  -85.8090   28.1290    0.8553 N   0  0  0  0  0  0  0  0  0  0  0  0
  -84.7940   28.4266    0.9995 H   0  0  0  0  0  0  0  0  0  0  0  0
  -87.7232   26.6856    1.5551 C   0  0  0  0  0  0  0  0  0  0  0  0
  -88.7504   27.2803    2.4527 C   0  0  0  0  0  0  0  0  0  0  0  0
  -89.2206   25.3970    3.8817 C   0  0  0  0  0  0  0  0  0  0  0  0
  -89.4886   26.4776    3.1766 O   0  0  0  0  0  0  0  0  0  0  0  0
  -89.5207   31.5958   -4.8601 O   0  0  0  0  0  0  0  0  0  0  0  0
  -90.8167   31.0769   -4.9661 C   0  0  0  0  0  0  0  0  0  0  0  0
  -91.7310   31.5018   -3.8634 C   0  0  0  0  0  0  0  0  0  0  0  0
  -92.9682   32.2039   -4.3407 C   0  0  0  0  0  0  0  0  0  0  0  0
  -93.9578   31.8613   -3.2667 C   0  0  0  0  0  0  0  0  0  0  0  0
  -93.5313   30.7467   -2.6078 O   0  0  0  0  0  0  0  0  0  0  0  0
  -92.2988   30.3733   -3.0707 C   0  0  0  0  0  0  0  0  0  0  0  0
 25 26  1  0  0  0
 26 24  1  0  0  0
 24 23  1  0  0  0
 23 19  1  0  0  0
 19 20  2  0  0  0
 19 21  1  0  0  0
 21  1  1  0  0  0
  1  2  2  0  0  0
  2  3  1  0  0  0
  3  4  2  0  0  0
  4  5  1  0  0  0
  5 10  1  0  0  0
 10 11  2  0  0  0
 11 12  1  0  0  0
 12 13  2  0  0  0
 13 16  1  0  0  0
 16 17  1  0  0  0
 17 18  1  0  0  0
 13 14  1  0  0  0
 14 15  2  0  0  0
  5  6  2  0  0  0
  6 27  1  0  0  0
 27 28  1  0  0  0
 28 29  1  0  0  0
 29 30  1  0  0  0
 30 31  1  0  0  0
 31 32  1  0  0  0
 32 33  1  0  0  0
  6  7  1  0  0  0
  7  8  2  0  0  0
  8  9  1  0  0  0
  9  1  1  0  0  0
  8  3  1  0  0  0
 15 10  1  0  0  0
 33 29  1  0  0  0
 21 22  1  0  0  0
M  END
> <minimizedAffinity>
-5.73021

> <CNNscore>
0.0651091635

> <CNNaffinity>
6.0218634605

> <CNN_VS>
0.3920784891

> <CNNaffinity_variance>
0.2081839740

$$$$
[H]OC(=O)[C@@]([H])(N([H])C(=O)[C@@]([H])(C([H])([H])C(=O)N([H])O[H])C([H])([H])C([H])(C([H])([H])[H])C([H])([H])[H])C([H])([H])c1c([H])n([H])c2c([H])c([H])c([H])c([H])c12


 32 33  0  0  0  0  0  0  0  0999 V2000
  -87.3992   27.9871   -0.6820 C   0  0  0  0  0  0  0  0  0  0  0  0
  -86.6228   28.5146   -1.4923 O   0  0  0  0  0  0  0  0  0  0  0  0
  -86.9849   27.7696    0.6570 N   0  0  0  0  0  0  0  0  0  0  0  0
  -87.6160   27.3311    1.3500 H   0  0  0  0  0  0  0  0  0  0  0  0
  -88.7900   27.5558   -1.0413 C   0  0  0  0  0  0  0  0  0  0  0  0
  -89.7323   28.6928   -1.1963 C   0  0  0  0  0  0  0  0  0  0  0  0
  -89.7175   31.0094   -0.4490 C   0  0  0  0  0  0  0  0  0  0  0  0
  -89.6886   29.5681    0.0325 C   0  0  0  0  0  0  0  0  0  0  0  0
  -90.8783   29.2840    0.9382 C   0  0  0  0  0  0  0  0  0  0  0  0
  -89.2270   26.5706    0.0303 C   0  0  0  0  0  0  0  0  0  0  0  0
  -89.3490   25.1858   -0.4086 C   0  0  0  0  0  0  0  0  0  0  0  0
  -89.6833   24.2457    0.3527 O   0  0  0  0  0  0  0  0  0  0  0  0
  -89.0777   24.8603   -1.7754 N   0  0  0  0  0  0  0  0  0  0  0  0
  -89.1932   23.5827   -2.1681 O   0  0  0  0  0  0  0  0  0  0  0  0
  -88.7987   25.6162   -2.4299 H   0  0  0  0  0  0  0  0  0  0  0  0
  -89.8293   23.5688   -2.9312 H   0  0  0  0  0  0  0  0  0  0  0  0
  -85.6414   28.1552    1.1258 C   0  0  0  0  0  0  0  0  0  0  0  0
  -85.1761   27.1558    2.1060 C   0  0  0  0  0  0  0  0  0  0  0  0
  -83.8973   27.1399    2.6257 O   0  0  0  0  0  0  0  0  0  0  0  0
  -85.9740   26.2705    2.4928 O   0  0  0  0  0  0  0  0  0  0  0  0
  -83.4004   26.3386    2.9478 H   0  0  0  0  0  0  0  0  0  0  0  0
  -85.7743   29.4853    1.8095 C   0  0  0  0  0  0  0  0  0  0  0  0
  -84.8646   30.5342    1.3029 C   0  0  0  0  0  0  0  0  0  0  0  0
  -83.5422   30.8019    1.6344 C   0  0  0  0  0  0  0  0  0  0  0  0
  -83.1237   31.8629    0.9260 N   0  0  0  0  0  0  0  0  0  0  0  0
  -84.0978   32.3258    0.1316 C   0  0  0  0  0  0  0  0  0  0  0  0
  -84.2063   33.3616   -0.7768 C   0  0  0  0  0  0  0  0  0  0  0  0
  -85.3960   33.5641   -1.4445 C   0  0  0  0  0  0  0  0  0  0  0  0
  -86.4822   32.7610   -1.2310 C   0  0  0  0  0  0  0  0  0  0  0  0
  -86.3557   31.7296   -0.3187 C   0  0  0  0  0  0  0  0  0  0  0  0
  -85.1863   31.5075    0.3568 C   0  0  0  0  0  0  0  0  0  0  0  0
  -82.1648   32.2983    0.9656 H   0  0  0  0  0  0  0  0  0  0  0  0
  7  8  1  0  0  0
  8  9  1  0  0  0
  8  6  1  0  0  0
  6  5  1  0  0  0
  5 10  1  0  0  0
 10 11  1  0  0  0
 11 12  2  0  0  0
 11 13  1  0  0  0
 13 14  1  0  0  0
  5  1  1  0  0  0
  1  2  2  0  0  0
  1  3  1  0  0  0
  3 17  1  0  0  0
 17 22  1  0  0  0
 22 23  1  0  0  0
 23 24  2  0  0  0
 24 25  1  0  0  0
 25 26  1  0  0  0
 26 27  2  0  0  0
 27 28  1  0  0  0
 28 29  2  0  0  0
 29 30  1  0  0  0
 30 31  2  0  0  0
 17 18  1  0  0  0
 18 19  1  0  0  0
 18 20  2  0  0  0
 31 23  1  0  0  0
 31 26  1  0  0  0
 13 15  1  0  0  0
 14 16  1  0  0  0
  3  4  1  0  0  0
 25 32  1  0  0  0
 19 21  1  0  0  0
M  END
> <minimizedAffinity>
-7.75071

> <CNNscore>
0.5176848173

> <CNNaffinity>
6.3521242142

> <CNN_VS>
3.2883982658

> <CNNaffinity_variance>
0.1448191106

$$$$
[H]OC(=O)[C@@]([H])(N([H])C(=O)[C@@]([H])(C([H])([H])C(=O)N([H])O[H])C([H])([H])C([H])(C([H])([H])[H])C([H])([H])[H])C([H])([H])c1c([H])n([H])c2c([H])c([H])c([H])c([H])c12


 32 33  0  0  0  0  0  0  0  0999 V2000
  -86.6430   28.0125    0.6990 C   0  0  0  0  0  0  0  0  0  0  0  0
  -86.3699   28.4721   -0.4198 O   0  0  0  0  0  0  0  0  0  0  0  0
  -85.7115   28.1351    1.7616 N   0  0  0  0  0  0  0  0  0  0  0  0
  -85.9182   27.7591    2.7032 H   0  0  0  0  0  0  0  0  0  0  0  0
  -87.9364   27.3179    1.0062 C   0  0  0  0  0  0  0  0  0  0  0  0
  -88.1228   27.0444    2.4537 C   0  0  0  0  0  0  0  0  0  0  0  0
  -90.1888   25.7887    2.7375 C   0  0  0  0  0  0  0  0  0  0  0  0
  -89.5810   27.1794    2.8190 C   0  0  0  0  0  0  0  0  0  0  0  0
  -89.7337   27.7472    4.2228 C   0  0  0  0  0  0  0  0  0  0  0  0
  -87.9600   26.0554    0.1605 C   0  0  0  0  0  0  0  0  0  0  0  0
  -88.9003   26.0689   -0.9534 C   0  0  0  0  0  0  0  0  0  0  0  0
  -89.9847   25.4371   -0.9511 O   0  0  0  0  0  0  0  0  0  0  0  0
  -88.5893   26.8367   -2.1203 N   0  0  0  0  0  0  0  0  0  0  0  0
  -89.4620   26.8417   -3.1391 O   0  0  0  0  0  0  0  0  0  0  0  0
  -87.6995   27.3703   -2.1525 H   0  0  0  0  0  0  0  0  0  0  0  0
  -89.6880   27.7913   -3.3244 H   0  0  0  0  0  0  0  0  0  0  0  0
  -84.4088   28.8007    1.5784 C   0  0  0  0  0  0  0  0  0  0  0  0
  -83.3922   28.0782    2.3660 C   0  0  0  0  0  0  0  0  0  0  0  0
  -83.6693   26.9493    3.1108 O   0  0  0  0  0  0  0  0  0  0  0  0
  -82.2132   28.5027    2.3673 O   0  0  0  0  0  0  0  0  0  0  0  0
  -83.1921   26.6524    3.9334 H   0  0  0  0  0  0  0  0  0  0  0  0
  -84.5434   30.1959    2.1167 C   0  0  0  0  0  0  0  0  0  0  0  0
  -84.1363   31.2623    1.1779 C   0  0  0  0  0  0  0  0  0  0  0  0
  -82.8938   31.8540    0.9873 C   0  0  0  0  0  0  0  0  0  0  0  0
  -83.0011   32.7894    0.0300 N   0  0  0  0  0  0  0  0  0  0  0  0
  -84.2549   32.8594   -0.4361 C   0  0  0  0  0  0  0  0  0  0  0  0
  -84.8993   33.6214   -1.3922 C   0  0  0  0  0  0  0  0  0  0  0  0
  -86.2445   33.4288   -1.6280 C   0  0  0  0  0  0  0  0  0  0  0  0
  -86.9660   32.4959   -0.9357 C   0  0  0  0  0  0  0  0  0  0  0  0
  -86.3052   31.7425    0.0172 C   0  0  0  0  0  0  0  0  0  0  0  0
  -84.9711   31.9142    0.2701 C   0  0  0  0  0  0  0  0  0  0  0  0
  -82.2238   33.4035   -0.3297 H   0  0  0  0  0  0  0  0  0  0  0  0
  7  8  1  0  0  0
  8  9  1  0  0  0
  8  6  1  0  0  0
  6  5  1  0  0  0
  5 10  1  0  0  0
 10 11  1  0  0  0
 11 12  2  0  0  0
 11 13  1  0  0  0
 13 14  1  0  0  0
  5  1  1  0  0  0
  1  2  2  0  0  0
  1  3  1  0  0  0
  3 17  1  0  0  0
 17 22  1  0  0  0
 22 23  1  0  0  0
 23 24  2  0  0  0
 24 25  1  0  0  0
 25 26  1  0  0  0
 26 27  2  0  0  0
 27 28  1  0  0  0
 28 29  2  0  0  0
 29 30  1  0  0  0
 30 31  2  0  0  0
 17 18  1  0  0  0
 18 19  1  0  0  0
 18 20  2  0  0  0
 31 23  1  0  0  0
 31 26  1  0  0  0
 13 15  1  0  0  0
 14 16  1  0  0  0
  3  4  1  0  0  0
 25 32  1  0  0  0
 19 21  1  0  0  0
M  END
> <minimizedAffinity>
-8.49944

> <CNNscore>
0.4374673665

> <CNNaffinity>
6.4740972519

> <CNN_VS>
2.8322062492

> <CNNaffinity_variance>
0.0486284643

$$$$
[H]OC(=O)[C@@]([H])(N([H])C(=O)[C@@]([H])(C([H])([H])C(=O)N([H])O[H])C([H])([H])C([H])(C([H])([H])[H])C([H])([H])[H])C([H])([H])c1c([H])n([H])c2c([H])c([H])c([H])c([H])c12


 32 33  0  0  0  0  0  0  0  0999 V2000
  -86.7017   27.8839    0.8970 C   0  0  0  0  0  0  0  0  0  0  0  0
  -86.4257   28.1829   -0.2743 O   0  0  0  0  0  0  0  0  0  0  0  0
  -85.7770   28.1631    1.9357 N   0  0  0  0  0  0  0  0  0  0  0  0
  -85.9862   27.9224    2.9201 H   0  0  0  0  0  0  0  0  0  0  0  0
  -87.9916   27.2293    1.2936 C   0  0  0  0  0  0  0  0  0  0  0  0
  -89.0958   27.4864    0.3348 C   0  0  0  0  0  0  0  0  0  0  0  0
  -89.4787   29.6485   -0.7159 C   0  0  0  0  0  0  0  0  0  0  0  0
  -89.6715   28.8616    0.5700 C   0  0  0  0  0  0  0  0  0  0  0  0
  -91.1488   28.7731    0.9252 C   0  0  0  0  0  0  0  0  0  0  0  0
  -88.3072   27.7136    2.6991 C   0  0  0  0  0  0  0  0  0  0  0  0
  -89.2062   26.8594    3.4655 C   0  0  0  0  0  0  0  0  0  0  0  0
  -89.0694   25.6151    3.5551 O   0  0  0  0  0  0  0  0  0  0  0  0
  -90.3090   27.4512    4.1594 N   0  0  0  0  0  0  0  0  0  0  0  0
  -91.1297   26.6554    4.8614 O   0  0  0  0  0  0  0  0  0  0  0  0
  -90.4489   28.4783    4.1045 H   0  0  0  0  0  0  0  0  0  0  0  0
  -91.1503   27.0057    5.7910 H   0  0  0  0  0  0  0  0  0  0  0  0
  -84.4783   28.8067    1.6660 C   0  0  0  0  0  0  0  0  0  0  0  0
  -83.4245   28.0693    2.3883 C   0  0  0  0  0  0  0  0  0  0  0  0
  -83.6619   26.9150    3.1073 O   0  0  0  0  0  0  0  0  0  0  0  0
  -82.2500   28.5047    2.3553 O   0  0  0  0  0  0  0  0  0  0  0  0
  -83.1491   26.5968    3.9001 H   0  0  0  0  0  0  0  0  0  0  0  0
  -84.5548   30.2052    2.2072 C   0  0  0  0  0  0  0  0  0  0  0  0
  -84.1620   31.2605    1.2499 C   0  0  0  0  0  0  0  0  0  0  0  0
  -82.9290   31.8697    1.0530 C   0  0  0  0  0  0  0  0  0  0  0  0
  -83.0482   32.7849    0.0777 N   0  0  0  0  0  0  0  0  0  0  0  0
  -84.3011   32.8244   -0.3946 C   0  0  0  0  0  0  0  0  0  0  0  0
  -84.9543   33.5571   -1.3675 C   0  0  0  0  0  0  0  0  0  0  0  0
  -86.2949   33.3370   -1.6049 C   0  0  0  0  0  0  0  0  0  0  0  0
  -87.0033   32.4051   -0.8978 C   0  0  0  0  0  0  0  0  0  0  0  0
  -86.3339   31.6813    0.0717 C   0  0  0  0  0  0  0  0  0  0  0  0
  -85.0040   31.8806    0.3266 C   0  0  0  0  0  0  0  0  0  0  0  0
  -82.2800   33.4053   -0.2905 H   0  0  0  0  0  0  0  0  0  0  0  0
  7  8  1  0  0  0
  8  9  1  0  0  0
  8  6  1  0  0  0
  6  5  1  0  0  0
  5 10  1  0  0  0
 10 11  1  0  0  0
 11 12  2  0  0  0
 11 13  1  0  0  0
 13 14  1  0  0  0
  5  1  1  0  0  0
  1  2  2  0  0  0
  1  3  1  0  0  0
  3 17  1  0  0  0
 17 22  1  0  0  0
 22 23  1  0  0  0
 23 24  2  0  0  0
 24 25  1  0  0  0
 25 26  1  0  0  0
 26 27  2  0  0  0
 27 28  1  0  0  0
 28 29  2  0  0  0
 29 30  1  0  0  0
 30 31  2  0  0  0
 17 18  1  0  0  0
 18 19  1  0  0  0
 18 20  2  0  0  0
 31 23  1  0  0  0
 31 26  1  0  0  0
 13 15  1  0  0  0
 14 16  1  0  0  0
  3  4  1  0  0  0
 25 32  1  0  0  0
 19 21  1  0  0  0
M  END
> <minimizedAffinity>
-8.39795

> <CNNscore>
0.3719832003

> <CNNaffinity>
6.2820730209

> <CNN_VS>
2.3368256092

> <CNNaffinity_variance>
0.1197741032

$$$$
[H]OC(=O)[C@@]([H])(N([H])C(=O)[C@@]([H])(C([H])([H])C(=O)N([H])O[H])C([H])([H])C([H])(C([H])([H])[H])C([H])([H])[H])C([H])([H])c1c([H])n([H])c2c([H])c([H])c([H])c([H])c12


 32 33  0  0  0  0  0  0  0  0999 V2000
  -87.3814   30.4825   -0.4711 C   0  0  0  0  0  0  0  0  0  0  0  0
  -87.5117   31.6506   -0.0762 O   0  0  0  0  0  0  0  0  0  0  0  0
  -88.0700   30.0465   -1.6321 N   0  0  0  0  0  0  0  0  0  0  0  0
  -87.9761   29.0764   -1.9797 H   0  0  0  0  0  0  0  0  0  0  0  0
  -86.5130   29.4750    0.2220 C   0  0  0  0  0  0  0  0  0  0  0  0
  -85.0954   29.9030    0.3316 C   0  0  0  0  0  0  0  0  0  0  0  0
  -83.3066   29.3638    1.8920 C   0  0  0  0  0  0  0  0  0  0  0  0
  -84.6920   29.9794    1.7840 C   0  0  0  0  0  0  0  0  0  0  0  0
  -84.6727   31.4243    2.2618 C   0  0  0  0  0  0  0  0  0  0  0  0
  -86.6767   28.1687   -0.5372 C   0  0  0  0  0  0  0  0  0  0  0  0
  -87.2999   27.0854    0.2134 C   0  0  0  0  0  0  0  0  0  0  0  0
  -87.6254   27.1791    1.4218 O   0  0  0  0  0  0  0  0  0  0  0  0
  -87.5625   25.8417   -0.4438 N   0  0  0  0  0  0  0  0  0  0  0  0
  -88.1364   24.8519    0.2568 O   0  0  0  0  0  0  0  0  0  0  0  0
  -87.3046   25.7332   -1.4434 H   0  0  0  0  0  0  0  0  0  0  0  0
  -88.9553   24.5823   -0.2370 H   0  0  0  0  0  0  0  0  0  0  0  0
  -88.9494   30.9491   -2.3973 C   0  0  0  0  0  0  0  0  0  0  0  0
  -90.0688   30.1639   -2.9507 C   0  0  0  0  0  0  0  0  0  0  0  0
  -90.8953   29.3716   -2.1793 O   0  0  0  0  0  0  0  0  0  0  0  0
  -90.2893   30.2099   -4.1833 O   0  0  0  0  0  0  0  0  0  0  0  0
  -91.3761   28.5520   -2.4790 H   0  0  0  0  0  0  0  0  0  0  0  0
  -88.1364   31.5065   -3.5299 C   0  0  0  0  0  0  0  0  0  0  0  0
  -87.7221   32.9148   -3.3585 C   0  0  0  0  0  0  0  0  0  0  0  0
  -86.5053   33.4406   -2.9424 C   0  0  0  0  0  0  0  0  0  0  0  0
  -86.5941   34.7802   -2.9270 N   0  0  0  0  0  0  0  0  0  0  0  0
  -87.8110   35.1863   -3.3124 C   0  0  0  0  0  0  0  0  0  0  0  0
  -88.4243   36.4144   -3.4726 C   0  0  0  0  0  0  0  0  0  0  0  0
  -89.7343   36.4742   -3.8999 C   0  0  0  0  0  0  0  0  0  0  0  0
  -90.4507   35.3415   -4.1722 C   0  0  0  0  0  0  0  0  0  0  0  0
  -89.8213   34.1215   -4.0064 C   0  0  0  0  0  0  0  0  0  0  0  0
  -88.5224   34.0351   -3.5837 C   0  0  0  0  0  0  0  0  0  0  0  0
  -85.8289   35.4513   -2.6538 H   0  0  0  0  0  0  0  0  0  0  0  0
  7  8  1  0  0  0
  8  9  1  0  0  0
  8  6  1  0  0  0
  6  5  1  0  0  0
  5 10  1  0  0  0
 10 11  1  0  0  0
 11 12  2  0  0  0
 11 13  1  0  0  0
 13 14  1  0  0  0
  5  1  1  0  0  0
  1  2  2  0  0  0
  1  3  1  0  0  0
  3 17  1  0  0  0
 17 22  1  0  0  0
 22 23  1  0  0  0
 23 24  2  0  0  0
 24 25  1  0  0  0
 25 26  1  0  0  0
 26 27  2  0  0  0
 27 28  1  0  0  0
 28 29  2  0  0  0
 29 30  1  0  0  0
 30 31  2  0  0  0
 17 18  1  0  0  0
 18 19  1  0  0  0
 18 20  2  0  0  0
 31 23  1  0  0  0
 31 26  1  0  0  0
 13 15  1  0  0  0
 14 16  1  0  0  0
  3  4  1  0  0  0
 25 32  1  0  0  0
 19 21  1  0  0  0
M  END
> <minimizedAffinity>
-7.48017

> <CNNscore>
0.2833091617

> <CNNaffinity>
5.6860828400

> <CNN_VS>
1.6109193563

> <CNNaffinity_variance>
0.3187139034

$$$$
[H]OC(=O)[C@@]([H])(N([H])C(=O)[C@@]([H])(C([H])([H])C(=O)N([H])O[H])C([H])([H])C([H])(C([H])([H])[H])C([H])([H])[H])C([H])([H])c1c([H])n([H])c2c([H])c([H])c([H])c([H])c12


 32 33  0  0  0  0  0  0  0  0999 V2000
  -88.1740   28.8242    0.5404 C   0  0  0  0  0  0  0  0  0  0  0  0
  -89.3299   28.3842    0.4513 O   0  0  0  0  0  0  0  0  0  0  0  0
  -87.8227   30.0303   -0.1180 N   0  0  0  0  0  0  0  0  0  0  0  0
  -86.8643   30.4159   -0.0575 H   0  0  0  0  0  0  0  0  0  0  0  0
  -87.0953   28.1405    1.3269 C   0  0  0  0  0  0  0  0  0  0  0  0
  -85.7474   28.7180    1.0938 C   0  0  0  0  0  0  0  0  0  0  0  0
  -83.4849   28.8985    1.9734 C   0  0  0  0  0  0  0  0  0  0  0  0
  -84.9332   28.6527    2.3630 C   0  0  0  0  0  0  0  0  0  0  0  0
  -85.4038   29.7031    3.3588 C   0  0  0  0  0  0  0  0  0  0  0  0
  -87.1727   26.6644    0.9735 C   0  0  0  0  0  0  0  0  0  0  0  0
  -88.1893   25.9043    1.6905 C   0  0  0  0  0  0  0  0  0  0  0  0
  -88.3676   25.9854    2.9301 O   0  0  0  0  0  0  0  0  0  0  0  0
  -89.0387   25.0133    0.9610 N   0  0  0  0  0  0  0  0  0  0  0  0
  -89.9707   24.3190    1.6312 O   0  0  0  0  0  0  0  0  0  0  0  0
  -88.9157   24.9242   -0.0659 H   0  0  0  0  0  0  0  0  0  0  0  0
  -90.8457   24.5198    1.2056 H   0  0  0  0  0  0  0  0  0  0  0  0
  -88.8003   30.7909   -0.9176 C   0  0  0  0  0  0  0  0  0  0  0  0
  -88.5849   30.4867   -2.3449 C   0  0  0  0  0  0  0  0  0  0  0  0
  -87.5352   29.7187   -2.8077 O   0  0  0  0  0  0  0  0  0  0  0  0
  -89.3891   30.9449   -3.1895 O   0  0  0  0  0  0  0  0  0  0  0  0
  -87.1005   29.7895   -3.7014 H   0  0  0  0  0  0  0  0  0  0  0  0
  -88.5286   32.2487   -0.6822 C   0  0  0  0  0  0  0  0  0  0  0  0
  -87.2651   32.7441   -1.2675 C   0  0  0  0  0  0  0  0  0  0  0  0
  -87.0344   33.3748   -2.4837 C   0  0  0  0  0  0  0  0  0  0  0  0
  -85.7219   33.6345   -2.5955 N   0  0  0  0  0  0  0  0  0  0  0  0
  -85.0536   33.2107   -1.5148 C   0  0  0  0  0  0  0  0  0  0  0  0
  -83.7295   33.2240   -1.1191 C   0  0  0  0  0  0  0  0  0  0  0  0
  -83.3741   32.6839    0.0992 C   0  0  0  0  0  0  0  0  0  0  0  0
  -84.3040   32.1299    0.9350 C   0  0  0  0  0  0  0  0  0  0  0  0
  -85.6240   32.1252    0.5230 C   0  0  0  0  0  0  0  0  0  0  0  0
  -86.0026   32.6547   -0.6810 C   0  0  0  0  0  0  0  0  0  0  0  0
  -85.2483   34.1066   -3.4101 H   0  0  0  0  0  0  0  0  0  0  0  0
  7  8  1  0  0  0
  8  9  1  0  0  0
  8  6  1  0  0  0
  6  5  1  0  0  0
  5 10  1  0  0  0
 10 11  1  0  0  0
 11 12  2  0  0  0
 11 13  1  0  0  0
 13 14  1  0  0  0
  5  1  1  0  0  0
  1  2  2  0  0  0
  1  3  1  0  0  0
  3 17  1  0  0  0
 17 22  1  0  0  0
 22 23  1  0  0  0
 23 24  2  0  0  0
 24 25  1  0  0  0
 25 26  1  0  0  0
 26 27  2  0  0  0
 27 28  1  0  0  0
 28 29  2  0  0  0
 29 30  1  0  0  0
 30 31  2  0  0  0
 17 18  1  0  0  0
 18 19  1  0  0  0
 18 20  2  0  0  0
 31 23  1  0  0  0
 31 26  1  0  0  0
 13 15  1  0  0  0
 14 16  1  0  0  0
  3  4  1  0  0  0
 25 32  1  0  0  0
 19 21  1  0  0  0
M  END
> <minimizedAffinity>
-7.83057

> <CNNscore>
0.2734471560

> <CNNaffinity>
5.9013748169

> <CNN_VS>
1.6137142181

> <CNNaffinity_variance>
0.2624890804

$$$$
[H]OC(=O)[C@@]([H])(N([H])C(=O)[C@@]([H])(C([H])([H])C(=O)N([H])O[H])C([H])([H])C([H])(C([H])([H])[H])C([H])([H])[H])C([H])([H])c1c([H])n([H])c2c([H])c([H])c([H])c([H])c12


 32 33  0  0  0  0  0  0  0  0999 V2000
  -87.6417   28.3479   -0.8614 C   0  0  0  0  0  0  0  0  0  0  0  0
  -86.7142   28.2911   -1.6824 O   0  0  0  0  0  0  0  0  0  0  0  0
  -87.3586   28.3404    0.5285 N   0  0  0  0  0  0  0  0  0  0  0  0
  -88.1166   28.3870    1.2313 H   0  0  0  0  0  0  0  0  0  0  0  0
  -89.0853   28.4295   -1.2601 C   0  0  0  0  0  0  0  0  0  0  0  0
  -89.4523   27.4626   -2.3255 C   0  0  0  0  0  0  0  0  0  0  0  0
  -89.3625   25.2732   -1.2655 C   0  0  0  0  0  0  0  0  0  0  0  0
  -90.3076   26.3612   -1.7481 C   0  0  0  0  0  0  0  0  0  0  0  0
  -91.1525   26.8843   -0.5952 C   0  0  0  0  0  0  0  0  0  0  0  0
  -89.3415   29.8729   -1.6610 C   0  0  0  0  0  0  0  0  0  0  0  0
  -89.2148   30.1560   -3.0855 C   0  0  0  0  0  0  0  0  0  0  0  0
  -90.1913   30.1939   -3.8728 O   0  0  0  0  0  0  0  0  0  0  0  0
  -87.9173   30.4064   -3.6346 N   0  0  0  0  0  0  0  0  0  0  0  0
  -87.8127   30.6658   -4.9467 O   0  0  0  0  0  0  0  0  0  0  0  0
  -87.0896   30.3820   -3.0088 H   0  0  0  0  0  0  0  0  0  0  0  0
  -87.3439   31.5374   -5.0349 H   0  0  0  0  0  0  0  0  0  0  0  0
  -85.9773   28.2659    1.0385 C   0  0  0  0  0  0  0  0  0  0  0  0
  -85.8426   27.0535    1.8678 C   0  0  0  0  0  0  0  0  0  0  0  0
  -86.8890   26.1914    2.1283 O   0  0  0  0  0  0  0  0  0  0  0  0
  -84.7259   26.7831    2.3677 O   0  0  0  0  0  0  0  0  0  0  0  0
  -86.9977   25.6223    2.9389 H   0  0  0  0  0  0  0  0  0  0  0  0
  -85.7565   29.4750    1.9009 C   0  0  0  0  0  0  0  0  0  0  0  0
  -84.8422   30.4846    1.3272 C   0  0  0  0  0  0  0  0  0  0  0  0
  -83.4933   30.7069    1.5748 C   0  0  0  0  0  0  0  0  0  0  0  0
  -83.0807   31.7446    0.8292 N   0  0  0  0  0  0  0  0  0  0  0  0
  -84.0842   32.2349    0.0896 C   0  0  0  0  0  0  0  0  0  0  0  0
  -84.2105   33.2647   -0.8233 C   0  0  0  0  0  0  0  0  0  0  0  0
  -85.4306   33.5040   -1.4202 C   0  0  0  0  0  0  0  0  0  0  0  0
  -86.5299   32.7435   -1.1314 C   0  0  0  0  0  0  0  0  0  0  0  0
  -86.3854   31.7174   -0.2157 C   0  0  0  0  0  0  0  0  0  0  0  0
  -85.1857   31.4595    0.3904 C   0  0  0  0  0  0  0  0  0  0  0  0
  -82.1062   32.1450    0.8054 H   0  0  0  0  0  0  0  0  0  0  0  0
  7  8  1  0  0  0
  8  9  1  0  0  0
  8  6  1  0  0  0
  6  5  1  0  0  0
  5 10  1  0  0  0
 10 11  1  0  0  0
 11 12  2  0  0  0
 11 13  1  0  0  0
 13 14  1  0  0  0
  5  1  1  0  0  0
  1  2  2  0  0  0
  1  3  1  0  0  0
  3 17  1  0  0  0
 17 22  1  0  0  0
 22 23  1  0  0  0
 23 24  2  0  0  0
 24 25  1  0  0  0
 25 26  1  0  0  0
 26 27  2  0  0  0
 27 28  1  0  0  0
 28 29  2  0  0  0
 29 30  1  0  0  0
 30 31  2  0  0  0
 17 18  1  0  0  0
 18 19  1  0  0  0
 18 20  2  0  0  0
 31 23  1  0  0  0
 31 26  1  0  0  0
 13 15  1  0  0  0
 14 16  1  0  0  0
  3  4  1  0  0  0
 25 32  1  0  0  0
 19 21  1  0  0  0
M  END
> <minimizedAffinity>
-7.87986

> <CNNscore>
0.2698043287

> <CNNaffinity>
6.0226001740

> <CNN_VS>
1.6249235868

> <CNNaffinity_variance>
0.0808957443

$$$$
[H]OC(=O)[C@@]([H])(N([H])C(=O)[C@@]([H])(C([H])([H])C(=O)N([H])O[H])C([H])([H])C([H])(C([H])([H])[H])C([H])([H])[H])C([H])([H])c1c([H])n([H])c2c([H])c([H])c([H])c([H])c12


 32 33  0  0  0  0  0  0  0  0999 V2000
  -88.6752   29.5560   -0.3319 C   0  0  0  0  0  0  0  0  0  0  0  0
  -89.7759   29.8234    0.1725 O   0  0  0  0  0  0  0  0  0  0  0  0
  -88.0063   30.5228   -1.1254 N   0  0  0  0  0  0  0  0  0  0  0  0
  -87.0872   30.3214   -1.5560 H   0  0  0  0  0  0  0  0  0  0  0  0
  -87.9874   28.2361   -0.1459 C   0  0  0  0  0  0  0  0  0  0  0  0
  -86.5746   28.3703    0.2907 C   0  0  0  0  0  0  0  0  0  0  0  0
  -87.4652   26.9033    2.0170 C   0  0  0  0  0  0  0  0  0  0  0  0
  -86.4497   28.0019    1.7490 C   0  0  0  0  0  0  0  0  0  0  0  0
  -85.0420   27.5154    2.0624 C   0  0  0  0  0  0  0  0  0  0  0  0
  -88.1291   27.4865   -1.4604 C   0  0  0  0  0  0  0  0  0  0  0  0
  -89.0739   26.3764   -1.4461 C   0  0  0  0  0  0  0  0  0  0  0  0
  -90.2909   26.5073   -1.1693 O   0  0  0  0  0  0  0  0  0  0  0  0
  -88.6091   25.0602   -1.7613 N   0  0  0  0  0  0  0  0  0  0  0  0
  -89.4875   24.0463   -1.7451 O   0  0  0  0  0  0  0  0  0  0  0  0
  -87.6075   24.9195   -1.9945 H   0  0  0  0  0  0  0  0  0  0  0  0
  -89.4453   23.6100   -2.6367 H   0  0  0  0  0  0  0  0  0  0  0  0
  -88.5842   31.8558   -1.3752 C   0  0  0  0  0  0  0  0  0  0  0  0
  -88.3626   32.2114   -2.7896 C   0  0  0  0  0  0  0  0  0  0  0  0
  -87.6781   31.4054   -3.6771 O   0  0  0  0  0  0  0  0  0  0  0  0
  -88.8134   33.2992   -3.2180 O   0  0  0  0  0  0  0  0  0  0  0  0
  -87.1605   31.7089   -4.4725 H   0  0  0  0  0  0  0  0  0  0  0  0
  -87.8450   32.8306   -0.5046 C   0  0  0  0  0  0  0  0  0  0  0  0
  -86.3956   32.9266   -0.7771 C   0  0  0  0  0  0  0  0  0  0  0  0
  -85.7244   33.5723   -1.8080 C   0  0  0  0  0  0  0  0  0  0  0  0
  -84.4046   33.3787   -1.6545 N   0  0  0  0  0  0  0  0  0  0  0  0
  -84.1503   32.6341   -0.5706 C   0  0  0  0  0  0  0  0  0  0  0  0
  -83.0056   32.1499    0.0338 C   0  0  0  0  0  0  0  0  0  0  0  0
  -83.1066   31.3882    1.1792 C   0  0  0  0  0  0  0  0  0  0  0  0
  -84.3194   31.0956    1.7394 C   0  0  0  0  0  0  0  0  0  0  0  0
  -85.4541   31.5882    1.1214 C   0  0  0  0  0  0  0  0  0  0  0  0
  -85.3809   32.3463   -0.0158 C   0  0  0  0  0  0  0  0  0  0  0  0
  -83.6443   33.7485   -2.2837 H   0  0  0  0  0  0  0  0  0  0  0  0
  7  8  1  0  0  0
  8  9  1  0  0  0
  8  6  1  0  0  0
  6  5  1  0  0  0
  5 10  1  0  0  0
 10 11  1  0  0  0
 11 12  2  0  0  0
 11 13  1  0  0  0
 13 14  1  0  0  0
  5  1  1  0  0  0
  1  2  2  0  0  0
  1  3  1  0  0  0
  3 17  1  0  0  0
 17 22  1  0  0  0
 22 23  1  0  0  0
 23 24  2  0  0  0
 24 25  1  0  0  0
 25 26  1  0  0  0
 26 27  2  0  0  0
 27 28  1  0  0  0
 28 29  2  0  0  0
 29 30  1  0  0  0
 30 31  2  0  0  0
 17 18  1  0  0  0
 18 19  1  0  0  0
 18 20  2  0  0  0
 31 23  1  0  0  0
 31 26  1  0  0  0
 13 15  1  0  0  0
 14 16  1  0  0  0
  3  4  1  0  0  0
 25 32  1  0  0  0
 19 21  1  0  0  0
M  END
> <minimizedAffinity>
-7.88235

> <CNNscore>
0.2480501533

> <CNNaffinity>
5.8692307472

> <CNN_VS>
1.4558635950

> <CNNaffinity_variance>
0.2308008373

$$$$
[H]OC(=O)[C@@]([H])(N([H])C(=O)[C@@]([H])(C([H])([H])C(=O)N([H])O[H])C([H])([H])C([H])(C([H])([H])[H])C([H])([H])[H])C([H])([H])c1c([H])n([H])c2c([H])c([H])c([H])c([H])c12


 32 33  0  0  0  0  0  0  0  0999 V2000
  -90.0062   28.6147    0.3898 C   0  0  0  0  0  0  0  0  0  0  0  0
  -90.9039   29.4517    0.5664 O   0  0  0  0  0  0  0  0  0  0  0  0
  -88.9112   28.9191   -0.4588 N   0  0  0  0  0  0  0  0  0  0  0  0
  -88.1509   28.2361   -0.6206 H   0  0  0  0  0  0  0  0  0  0  0  0
  -90.0064   27.2631    1.0400 C   0  0  0  0  0  0  0  0  0  0  0  0
  -89.3206   27.2485    2.3569 C   0  0  0  0  0  0  0  0  0  0  0  0
  -90.1509   25.6207    3.9651 C   0  0  0  0  0  0  0  0  0  0  0  0
  -90.3299   27.0430    3.4602 C   0  0  0  0  0  0  0  0  0  0  0  0
  -90.1062   28.0416    4.5869 C   0  0  0  0  0  0  0  0  0  0  0  0
  -89.3827   26.3030    0.0405 C   0  0  0  0  0  0  0  0  0  0  0  0
  -89.7361   24.9001    0.2198 C   0  0  0  0  0  0  0  0  0  0  0  0
  -90.8612   24.5161    0.6217 O   0  0  0  0  0  0  0  0  0  0  0  0
  -88.7629   23.8924   -0.0720 N   0  0  0  0  0  0  0  0  0  0  0  0
  -89.0992   22.6046    0.0967 O   0  0  0  0  0  0  0  0  0  0  0  0
  -87.8227   24.1785   -0.4062 H   0  0  0  0  0  0  0  0  0  0  0  0
  -88.9356   22.1450   -0.7689 H   0  0  0  0  0  0  0  0  0  0  0  0
  -88.8022   30.2171   -1.1493 C   0  0  0  0  0  0  0  0  0  0  0  0
  -88.0749   30.0202   -2.4174 C   0  0  0  0  0  0  0  0  0  0  0  0
  -87.7794   31.0475   -3.2910 O   0  0  0  0  0  0  0  0  0  0  0  0
  -87.7023   28.8649   -2.7284 O   0  0  0  0  0  0  0  0  0  0  0  0
  -87.6686   30.9701   -4.2782 H   0  0  0  0  0  0  0  0  0  0  0  0
  -88.0011   31.1261   -0.2625 C   0  0  0  0  0  0  0  0  0  0  0  0
  -86.6528   30.6260    0.0783 C   0  0  0  0  0  0  0  0  0  0  0  0
  -86.2645   29.3993    0.6025 C   0  0  0  0  0  0  0  0  0  0  0  0
  -84.9309   29.3969    0.7586 N   0  0  0  0  0  0  0  0  0  0  0  0
  -84.3982   30.5614    0.3656 C   0  0  0  0  0  0  0  0  0  0  0  0
  -83.1184   31.0801    0.3118 C   0  0  0  0  0  0  0  0  0  0  0  0
  -82.9179   32.3589   -0.1643 C   0  0  0  0  0  0  0  0  0  0  0  0
  -83.9601   33.1360   -0.5890 C   0  0  0  0  0  0  0  0  0  0  0  0
  -85.2338   32.6010   -0.5281 C   0  0  0  0  0  0  0  0  0  0  0  0
  -85.4593   31.3348   -0.0599 C   0  0  0  0  0  0  0  0  0  0  0  0
  -84.3502   28.6028    1.1364 H   0  0  0  0  0  0  0  0  0  0  0  0
  7  8  1  0  0  0
  8  9  1  0  0  0
  8  6  1  0  0  0
  6  5  1  0  0  0
  5 10  1  0  0  0
 10 11  1  0  0  0
 11 12  2  0  0  0
 11 13  1  0  0  0
 13 14  1  0  0  0
  5  1  1  0  0  0
  1  2  2  0  0  0
  1  3  1  0  0  0
  3 17  1  0  0  0
 17 22  1  0  0  0
 22 23  1  0  0  0
 23 24  2  0  0  0
 24 25  1  0  0  0
 25 26  1  0  0  0
 26 27  2  0  0  0
 27 28  1  0  0  0
 28 29  2  0  0  0
 29 30  1  0  0  0
 30 31  2  0  0  0
 17 18  1  0  0  0
 18 19  1  0  0  0
 18 20  2  0  0  0
 31 23  1  0  0  0
 31 26  1  0  0  0
 13 15  1  0  0  0
 14 16  1  0  0  0
  3  4  1  0  0  0
 25 32  1  0  0  0
 19 21  1  0  0  0
M  END
> <minimizedAffinity>
-7.85553

> <CNNscore>
0.2311526537

> <CNNaffinity>
5.7191195488

> <CNN_VS>
1.3219896555

> <CNNaffinity_variance>
0.1813255250

$$$$
[H]OC(=O)[C@@]([H])(N([H])C(=O)[C@@]([H])(C([H])([H])C(=O)N([H])O[H])C([H])([H])C([H])(C([H])([H])[H])C([H])([H])[H])C([H])([H])c1c([H])n([H])c2c([H])c([H])c([H])c([H])c12


 32 33  0  0  0  0  0  0  0  0999 V2000
  -87.9194   28.4410   -0.3824 C   0  0  0  0  0  0  0  0  0  0  0  0
  -87.2426   27.9285   -1.2861 O   0  0  0  0  0  0  0  0  0  0  0  0
  -87.3437   28.6617    0.8950 N   0  0  0  0  0  0  0  0  0  0  0  0
  -87.8897   29.0878    1.6639 H   0  0  0  0  0  0  0  0  0  0  0  0
  -89.3491   28.8562   -0.5641 C   0  0  0  0  0  0  0  0  0  0  0  0
  -89.6105   30.2534   -0.1351 C   0  0  0  0  0  0  0  0  0  0  0  0
  -90.6085   31.0541   -2.2058 C   0  0  0  0  0  0  0  0  0  0  0  0
  -89.3999   31.1956   -1.2952 C   0  0  0  0  0  0  0  0  0  0  0  0
  -89.2656   32.6304   -0.8056 C   0  0  0  0  0  0  0  0  0  0  0  0
  -90.1926   27.8411    0.1896 C   0  0  0  0  0  0  0  0  0  0  0  0
  -90.3708   28.1113    1.6110 C   0  0  0  0  0  0  0  0  0  0  0  0
  -89.5977   27.6782    2.4997 O   0  0  0  0  0  0  0  0  0  0  0  0
  -91.4792   28.9103    2.0360 N   0  0  0  0  0  0  0  0  0  0  0  0
  -91.6332   29.1525    3.3466 O   0  0  0  0  0  0  0  0  0  0  0  0
  -92.1366   29.2832    1.3245 H   0  0  0  0  0  0  0  0  0  0  0  0
  -91.6685   30.1391    3.4583 H   0  0  0  0  0  0  0  0  0  0  0  0
  -85.9461   28.2966    1.1898 C   0  0  0  0  0  0  0  0  0  0  0  0
  -85.9329   27.0007    1.8942 C   0  0  0  0  0  0  0  0  0  0  0  0
  -87.0466   26.1952    2.0238 O   0  0  0  0  0  0  0  0  0  0  0  0
  -84.8614   26.6010    2.4062 O   0  0  0  0  0  0  0  0  0  0  0  0
  -87.2310   25.5572    2.7665 H   0  0  0  0  0  0  0  0  0  0  0  0
  -85.3936   29.3541    2.1014 C   0  0  0  0  0  0  0  0  0  0  0  0
  -84.3370   30.1960    1.5021 C   0  0  0  0  0  0  0  0  0  0  0  0
  -82.9553   30.1068    1.6174 C   0  0  0  0  0  0  0  0  0  0  0  0
  -82.3957   31.0969    0.9037 N   0  0  0  0  0  0  0  0  0  0  0  0
  -83.3309   31.8511    0.3114 C   0  0  0  0  0  0  0  0  0  0  0  0
  -83.3118   32.9618   -0.5108 C   0  0  0  0  0  0  0  0  0  0  0  0
  -84.4993   33.5044   -0.9552 C   0  0  0  0  0  0  0  0  0  0  0  0
  -85.7072   32.9694   -0.6018 C   0  0  0  0  0  0  0  0  0  0  0  0
  -85.7075   31.8583    0.2214 C   0  0  0  0  0  0  0  0  0  0  0  0
  -84.5431   31.3009    0.6759 C   0  0  0  0  0  0  0  0  0  0  0  0
  -81.3636   31.2839    0.8021 H   0  0  0  0  0  0  0  0  0  0  0  0
  7  8  1  0  0  0
  8  9  1  0  0  0
  8  6  1  0  0  0
  6  5  1  0  0  0
  5 10  1  0  0  0
 10 11  1  0  0  0
 11 12  2  0  0  0
 11 13  1  0  0  0
 13 14  1  0  0  0
  5  1  1  0  0  0
  1  2  2  0  0  0
  1  3  1  0  0  0
  3 17  1  0  0  0
 17 22  1  0  0  0
 22 23  1  0  0  0
 23 24  2  0  0  0
 24 25  1  0  0  0
 25 26  1  0  0  0
 26 27  2  0  0  0
 27 28  1  0  0  0
 28 29  2  0  0  0
 29 30  1  0  0  0
 30 31  2  0  0  0
 17 18  1  0  0  0
 18 19  1  0  0  0
 18 20  2  0  0  0
 31 23  1  0  0  0
 31 26  1  0  0  0
 13 15  1  0  0  0
 14 16  1  0  0  0
  3  4  1  0  0  0
 25 32  1  0  0  0
 19 21  1  0  0  0
M  END
> <minimizedAffinity>
-8.36342

> <CNNscore>
0.2044394314

> <CNNaffinity>
5.8706402779

> <CNN_VS>
1.2001903057

> <CNNaffinity_variance>
0.1723188609

$$$$
[H]c1c([H])c([H])c(C([H])([H])[C@@]2([H])C(=O)N([H])[C@@]([H])(C([H])([H])c3c([H])c([H])c([H])c([H])c3[H])C(=O)N([H])[C@@]([H])(C([H])(C([H])([H])[H])C([H])([H])[H])C(=O)N([H])[C@@]([H])(C([H])([H])c3c([H])c([H])c([H])c([H])c3[H])C(=O)N([H])[C@@]([H])(C([H])([H])c3c([H])c([H])c([H])c([H])c3[H])C(=O)N3C([H])([H])C([H])([H])C([H])([H])[C@@]3([H])C(=O)N([H])[C@@]([H])(C([H])([H])C([H])([H])C(=O)N([H])[H])C(=O)N2[H])c([H])c1[H]


 75 80  0  0  0  0  0  0  0  0999 V2000
  -91.6899   31.9899   -3.4690 C   0  0  0  0  0  0  0  0  0  0  0  0
  -92.3227   31.1054   -2.5767 N   0  0  0  0  0  0  0  0  0  0  0  0
  -93.4282   30.2503   -2.7403 C   0  0  0  0  0  0  0  0  0  0  0  0
  -94.4668   30.4222   -1.9715 O   0  0  0  0  0  0  0  0  0  0  0  0
  -93.5995   29.1366   -3.6868 C   0  0  0  0  0  0  0  0  0  0  0  0
  -94.0140   27.9896   -2.8687 N   0  0  0  0  0  0  0  0  0  0  0  0
  -93.6084   26.6620   -3.0016 C   0  0  0  0  0  0  0  0  0  0  0  0
  -94.5189   25.7644   -3.1371 O   0  0  0  0  0  0  0  0  0  0  0  0
  -92.2142   26.1601   -2.9996 C   0  0  0  0  0  0  0  0  0  0  0  0
  -92.0802   25.0242   -2.1021 N   0  0  0  0  0  0  0  0  0  0  0  0
  -91.5923   24.9808   -0.8012 C   0  0  0  0  0  0  0  0  0  0  0  0
  -90.6241   24.1463   -0.5928 O   0  0  0  0  0  0  0  0  0  0  0  0
  -92.0291   25.7553    0.3764 C   0  0  0  0  0  0  0  0  0  0  0  0
  -91.8452   27.1699    0.2952 N   0  0  0  0  0  0  0  0  0  0  0  0
  -91.2971   27.9269    1.3668 C   0  0  0  0  0  0  0  0  0  0  0  0
  -91.5982   29.1648    1.5034 O   0  0  0  0  0  0  0  0  0  0  0  0
  -90.3665   27.3995    2.3916 C   0  0  0  0  0  0  0  0  0  0  0  0
  -91.2210   27.0953    3.6130 C   0  0  0  0  0  0  0  0  0  0  0  0
  -90.7851   28.1573    4.6057 C   0  0  0  0  0  0  0  0  0  0  0  0
  -89.3295   28.2745    4.2695 C   0  0  0  0  0  0  0  0  0  0  0  0
  -89.3534   28.3260    2.7942 N   0  0  0  0  0  0  0  0  0  0  0  0
  -88.5390   29.1177    1.9469 C   0  0  0  0  0  0  0  0  0  0  0  0
  -88.0027   30.1548    2.4816 O   0  0  0  0  0  0  0  0  0  0  0  0
  -88.2625   28.8492    0.5152 C   0  0  0  0  0  0  0  0  0  0  0  0
  -87.6507   30.0148   -0.0648 N   0  0  0  0  0  0  0  0  0  0  0  0
  -88.0976   30.8313   -1.0974 C   0  0  0  0  0  0  0  0  0  0  0  0
  -87.9929   32.0934   -0.9242 O   0  0  0  0  0  0  0  0  0  0  0  0
  -88.6891   30.3352   -2.3929 C   0  0  0  0  0  0  0  0  0  0  0  0
  -89.1434   31.4787   -3.1541 N   0  0  0  0  0  0  0  0  0  0  0  0
  -90.3099   31.6990   -3.8936 C   0  0  0  0  0  0  0  0  0  0  0  0
  -90.1949   31.6502   -5.1964 O   0  0  0  0  0  0  0  0  0  0  0  0
  -91.8976   31.0811   -1.5900 H   0  0  0  0  0  0  0  0  0  0  0  0
  -94.7148   28.2396   -2.1040 H   0  0  0  0  0  0  0  0  0  0  0  0
  -92.4202   24.1082   -2.5420 H   0  0  0  0  0  0  0  0  0  0  0  0
  -92.0925   27.7764   -0.5376 H   0  0  0  0  0  0  0  0  0  0  0  0
  -86.7141   30.2835    0.3728 H   0  0  0  0  0  0  0  0  0  0  0  0
  -88.4064   32.2732   -3.1354 H   0  0  0  0  0  0  0  0  0  0  0  0
  -90.4673   34.1323   -2.8961 C   0  0  0  0  0  0  0  0  0  0  0  0
  -91.7986   33.4578   -3.0325 C   0  0  0  0  0  0  0  0  0  0  0  0
  -92.6232   34.2796   -3.9711 C   0  0  0  0  0  0  0  0  0  0  0  0
  -94.7330   29.2959   -4.6743 C   0  0  0  0  0  0  0  0  0  0  0  0
  -94.7755   30.5203   -5.4396 C   0  0  0  0  0  0  0  0  0  0  0  0
  -95.1979   31.7150   -4.9041 C   0  0  0  0  0  0  0  0  0  0  0  0
  -95.2249   32.8772   -5.6545 C   0  0  0  0  0  0  0  0  0  0  0  0
  -94.8150   32.8408   -6.9847 C   0  0  0  0  0  0  0  0  0  0  0  0
  -94.3899   31.6555   -7.5370 C   0  0  0  0  0  0  0  0  0  0  0  0
  -94.3758   30.5158   -6.7612 C   0  0  0  0  0  0  0  0  0  0  0  0
  -91.7835   25.8699   -4.4105 C   0  0  0  0  0  0  0  0  0  0  0  0
  -92.7117   26.2137   -5.4808 C   0  0  0  0  0  0  0  0  0  0  0  0
  -93.8307   25.4290   -5.6673 C   0  0  0  0  0  0  0  0  0  0  0  0
  -94.7421   25.6808   -6.6680 C   0  0  0  0  0  0  0  0  0  0  0  0
  -94.5457   26.7460   -7.5191 C   0  0  0  0  0  0  0  0  0  0  0  0
  -93.4345   27.5347   -7.3425 C   0  0  0  0  0  0  0  0  0  0  0  0
  -92.5347   27.2732   -6.3419 C   0  0  0  0  0  0  0  0  0  0  0  0
  -93.4978   25.5078    0.7371 C   0  0  0  0  0  0  0  0  0  0  0  0
  -93.9891   24.2686    0.0498 C   0  0  0  0  0  0  0  0  0  0  0  0
  -93.6473   23.0622    0.8253 C   0  0  0  0  0  0  0  0  0  0  0  0
  -94.1302   21.7590    0.5481 N   0  0  0  0  0  0  0  0  0  0  0  0
  -92.8672   23.1842    1.8125 O   0  0  0  0  0  0  0  0  0  0  0  0
  -94.4485   21.1820    1.3637 H   0  0  0  0  0  0  0  0  0  0  0  0
  -94.1983   21.3226   -0.3909 H   0  0  0  0  0  0  0  0  0  0  0  0
  -87.4335   27.6024    0.3806 C   0  0  0  0  0  0  0  0  0  0  0  0
  -86.0971   27.6635    1.0285 C   0  0  0  0  0  0  0  0  0  0  0  0
  -85.2397   28.7235    0.8495 C   0  0  0  0  0  0  0  0  0  0  0  0
  -84.0011   28.7941    1.4555 C   0  0  0  0  0  0  0  0  0  0  0  0
  -83.6112   27.7591    2.2727 C   0  0  0  0  0  0  0  0  0  0  0  0
  -84.4620   26.6952    2.4577 C   0  0  0  0  0  0  0  0  0  0  0  0
  -85.6917   26.6366    1.8491 C   0  0  0  0  0  0  0  0  0  0  0  0
  -87.5611   29.6902   -3.2227 C   0  0  0  0  0  0  0  0  0  0  0  0
  -87.2920   28.2805   -2.8192 C   0  0  0  0  0  0  0  0  0  0  0  0
  -88.3769   27.4475   -2.6151 C   0  0  0  0  0  0  0  0  0  0  0  0
  -88.1859   26.1406   -2.2475 C   0  0  0  0  0  0  0  0  0  0  0  0
  -86.9389   25.5816   -2.0603 C   0  0  0  0  0  0  0  0  0  0  0  0
  -85.8765   26.4325   -2.2694 C   0  0  0  0  0  0  0  0  0  0  0  0
  -86.0432   27.7471   -2.6387 C   0  0  0  0  0  0  0  0  0  0  0  0
 38 39  1  0  0  0
 39 40  1  0  0  0
 39  1  1  0  0  0
  1  2  1  0  0  0
  2  3  1  0  0  0
  3  4  2  0  0  0
  3  5  1  0  0  0
  5 41  1  0  0  0
 41 42  1  0  0  0
 42 43  2  0  0  0
 43 44  1  0  0  0
 44 45  2  0  0  0
 45 46  1  0  0  0
 46 47  2  0  0  0
  5  6  1  0  0  0
  6  7  1  0  0  0
  7  8  2  0  0  0
  7  9  1  0  0  0
  9 48  1  0  0  0
 48 49  1  0  0  0
 49 50  2  0  0  0
 50 51  1  0  0  0
 51 52  2  0  0  0
 52 53  1  0  0  0
 53 54  2  0  0  0
  9 10  1  0  0  0
 10 11  1  0  0  0
 11 12  2  0  0  0
 11 13  1  0  0  0
 13 55  1  0  0  0
 55 56  1  0  0  0
 56 57  1  0  0  0
 57 58  1  0  0  0
 57 59  2  0  0  0
 13 14  1  0  0  0
 14 15  1  0  0  0
 15 16  2  0  0  0
 15 17  1  0  0  0
 17 18  1  0  0  0
 18 19  1  0  0  0
 19 20  1  0  0  0
 20 21  1  0  0  0
 21 22  1  0  0  0
 22 23  2  0  0  0
 22 24  1  0  0  0
 24 62  1  0  0  0
 62 63  1  0  0  0
 63 64  2  0  0  0
 64 65  1  0  0  0
 65 66  2  0  0  0
 66 67  1  0  0  0
 67 68  2  0  0  0
 24 25  1  0  0  0
 25 26  1  0  0  0
 26 27  2  0  0  0
 26 28  1  0  0  0
 28 69  1  0  0  0
 69 70  1  0  0  0
 70 71  2  0  0  0
 71 72  1  0  0  0
 72 73  2  0  0  0
 73 74  1  0  0  0
 74 75  2  0  0  0
 28 29  1  0  0  0
 29 30  1  0  0  0
 30 31  2  0  0  0
 30  1  1  0  0  0
 47 42  1  0  0  0
 54 49  1  0  0  0
 21 17  1  0  0  0
 68 63  1  0  0  0
 75 70  1  0  0  0
  2 32  1  0  0  0
  6 33  1  0  0  0
 10 34  1  0  0  0
 58 60  1  0  0  0
 58 61  1  0  0  0
 14 35  1  0  0  0
 25 36  1  0  0  0
 29 37  1  0  0  0
M  END
> <minimizedAffinity>
8.60974

> <CNNscore>
0.3880251050

> <CNNaffinity>
7.0142273903

> <CNN_VS>
2.7216963768

> <CNNaffinity_variance>
1.4993009567

$$$$
[H]c1c([H])c([H])c(C([H])([H])[C@@]2([H])C(=O)N([H])[C@@]([H])(C([H])([H])c3c([H])c([H])c([H])c([H])c3[H])C(=O)N([H])[C@@]([H])(C([H])(C([H])([H])[H])C([H])([H])[H])C(=O)N([H])[C@@]([H])(C([H])([H])c3c([H])c([H])c([H])c([H])c3[H])C(=O)N([H])[C@@]([H])(C([H])([H])c3c([H])c([H])c([H])c([H])c3[H])C(=O)N3C([H])([H])C([H])([H])C([H])([H])[C@@]3([H])C(=O)N([H])[C@@]([H])(C([H])([H])C([H])([H])C(=O)N([H])[H])C(=O)N2[H])c([H])c1[H]


 75 80  0  0  0  0  0  0  0  0999 V2000
  -90.2224   27.6075    2.0766 C   0  0  0  0  0  0  0  0  0  0  0  0
  -90.3342   28.8547    1.4354 N   0  0  0  0  0  0  0  0  0  0  0  0
  -89.4782   29.9713    1.4153 C   0  0  0  0  0  0  0  0  0  0  0  0
  -89.9326   31.1115    1.8546 O   0  0  0  0  0  0  0  0  0  0  0  0
  -88.0851   30.0561    0.9490 C   0  0  0  0  0  0  0  0  0  0  0  0
  -88.0557   31.1855    0.0109 N   0  0  0  0  0  0  0  0  0  0  0  0
  -87.3632   31.2675   -1.1967 C   0  0  0  0  0  0  0  0  0  0  0  0
  -86.5576   32.2555   -1.3636 O   0  0  0  0  0  0  0  0  0  0  0  0
  -87.4584   30.3238   -2.3352 C   0  0  0  0  0  0  0  0  0  0  0  0
  -87.6386   31.0451   -3.5846 N   0  0  0  0  0  0  0  0  0  0  0  0
  -88.8034   31.2846   -4.3046 C   0  0  0  0  0  0  0  0  0  0  0  0
  -88.7874   30.9001   -5.5411 O   0  0  0  0  0  0  0  0  0  0  0  0
  -90.0560   31.9198   -3.8521 C   0  0  0  0  0  0  0  0  0  0  0  0
  -90.7678   31.2305   -2.8227 N   0  0  0  0  0  0  0  0  0  0  0  0
  -92.1742   31.0284   -2.8767 C   0  0  0  0  0  0  0  0  0  0  0  0
  -92.8498   30.8958   -1.7962 O   0  0  0  0  0  0  0  0  0  0  0  0
  -92.9749   30.9522   -4.1207 C   0  0  0  0  0  0  0  0  0  0  0  0
  -93.5997   32.3279   -4.2986 C   0  0  0  0  0  0  0  0  0  0  0  0
  -95.0710   32.0704   -4.0295 C   0  0  0  0  0  0  0  0  0  0  0  0
  -95.2254   30.6967   -4.6083 C   0  0  0  0  0  0  0  0  0  0  0  0
  -94.0399   29.9980   -4.0736 N   0  0  0  0  0  0  0  0  0  0  0  0
  -93.9629   28.6588   -3.6167 C   0  0  0  0  0  0  0  0  0  0  0  0
  -95.0722   28.1120   -3.2712 O   0  0  0  0  0  0  0  0  0  0  0  0
  -92.7236   27.8524   -3.5064 C   0  0  0  0  0  0  0  0  0  0  0  0
  -93.0071   26.6704   -2.7372 N   0  0  0  0  0  0  0  0  0  0  0  0
  -92.4721   26.2505   -1.5247 C   0  0  0  0  0  0  0  0  0  0  0  0
  -93.2929   25.7999   -0.6547 O   0  0  0  0  0  0  0  0  0  0  0  0
  -91.0066   26.2887   -1.1711 C   0  0  0  0  0  0  0  0  0  0  0  0
  -90.8605   25.8873    0.2113 N   0  0  0  0  0  0  0  0  0  0  0  0
  -90.0744   26.3978    1.2493 C   0  0  0  0  0  0  0  0  0  0  0  0
  -89.0132   25.7047    1.5752 O   0  0  0  0  0  0  0  0  0  0  0  0
  -91.2360   28.9889    0.8666 H   0  0  0  0  0  0  0  0  0  0  0  0
  -88.6327   32.0239    0.3312 H   0  0  0  0  0  0  0  0  0  0  0  0
  -86.7192   31.4358   -3.9720 H   0  0  0  0  0  0  0  0  0  0  0  0
  -90.3379   30.8192   -1.9459 H   0  0  0  0  0  0  0  0  0  0  0  0
  -93.7411   26.0280   -3.1727 H   0  0  0  0  0  0  0  0  0  0  0  0
  -91.4734   25.0203    0.4290 H   0  0  0  0  0  0  0  0  0  0  0  0
  -90.8534   26.5244    4.2769 C   0  0  0  0  0  0  0  0  0  0  0  0
  -91.3109   27.3805    3.1352 C   0  0  0  0  0  0  0  0  0  0  0  0
  -91.8295   28.6586    3.7132 C   0  0  0  0  0  0  0  0  0  0  0  0
  -87.0730   30.4441    2.0029 C   0  0  0  0  0  0  0  0  0  0  0  0
  -86.0835   29.4558    2.3645 C   0  0  0  0  0  0  0  0  0  0  0  0
  -84.9627   29.7638    3.1002 C   0  0  0  0  0  0  0  0  0  0  0  0
  -84.0304   28.7994    3.4402 C   0  0  0  0  0  0  0  0  0  0  0  0
  -84.2281   27.4838    3.0292 C   0  0  0  0  0  0  0  0  0  0  0  0
  -85.3425   27.1575    2.2928 C   0  0  0  0  0  0  0  0  0  0  0  0
  -86.2515   28.1430    1.9711 C   0  0  0  0  0  0  0  0  0  0  0  0
  -86.2639   29.4108   -2.3312 C   0  0  0  0  0  0  0  0  0  0  0  0
  -85.1507   29.7643   -1.4590 C   0  0  0  0  0  0  0  0  0  0  0  0
  -84.5516   30.9973   -1.6130 C   0  0  0  0  0  0  0  0  0  0  0  0
  -83.4844   31.3937   -0.8388 C   0  0  0  0  0  0  0  0  0  0  0  0
  -82.9863   30.5446    0.1248 C   0  0  0  0  0  0  0  0  0  0  0  0
  -83.5754   29.3139    0.2873 C   0  0  0  0  0  0  0  0  0  0  0  0
  -84.6377   28.9314   -0.4902 C   0  0  0  0  0  0  0  0  0  0  0  0
  -89.8509   33.3619   -3.3757 C   0  0  0  0  0  0  0  0  0  0  0  0
  -90.0058   34.3064   -4.5303 C   0  0  0  0  0  0  0  0  0  0  0  0
  -89.0214   35.4014   -4.4543 C   0  0  0  0  0  0  0  0  0  0  0  0
  -89.1251   36.5237   -3.5952 N   0  0  0  0  0  0  0  0  0  0  0  0
  -88.0054   35.3483   -5.2046 O   0  0  0  0  0  0  0  0  0  0  0  0
  -88.8987   37.4626   -4.0036 H   0  0  0  0  0  0  0  0  0  0  0  0
  -89.4058   36.5012   -2.5966 H   0  0  0  0  0  0  0  0  0  0  0  0
  -92.1787   27.5639   -4.8774 C   0  0  0  0  0  0  0  0  0  0  0  0
  -93.1986   27.1954   -5.8941 C   0  0  0  0  0  0  0  0  0  0  0  0
  -93.7113   25.9235   -5.9954 C   0  0  0  0  0  0  0  0  0  0  0  0
  -94.6666   25.5744   -6.9293 C   0  0  0  0  0  0  0  0  0  0  0  0
  -95.1230   26.5420   -7.7932 C   0  0  0  0  0  0  0  0  0  0  0  0
  -94.6163   27.8166   -7.6990 C   0  0  0  0  0  0  0  0  0  0  0  0
  -93.6661   28.1513   -6.7657 C   0  0  0  0  0  0  0  0  0  0  0  0
  -90.2802   25.2158   -2.0067 C   0  0  0  0  0  0  0  0  0  0  0  0
  -91.0224   23.9234   -2.0432 C   0  0  0  0  0  0  0  0  0  0  0  0
  -90.8787   23.0642   -0.9692 C   0  0  0  0  0  0  0  0  0  0  0  0
  -91.5425   21.8647   -0.9495 C   0  0  0  0  0  0  0  0  0  0  0  0
  -92.3733   21.4427   -1.9663 C   0  0  0  0  0  0  0  0  0  0  0  0
  -92.4982   22.3165   -3.0234 C   0  0  0  0  0  0  0  0  0  0  0  0
  -91.8426   23.5251   -3.0656 C   0  0  0  0  0  0  0  0  0  0  0  0
 38 39  1  0  0  0
 39 40  1  0  0  0
 39  1  1  0  0  0
  1  2  1  0  0  0
  2  3  1  0  0  0
  3  4  2  0  0  0
  3  5  1  0  0  0
  5 41  1  0  0  0
 41 42  1  0  0  0
 42 43  2  0  0  0
 43 44  1  0  0  0
 44 45  2  0  0  0
 45 46  1  0  0  0
 46 47  2  0  0  0
  5  6  1  0  0  0
  6  7  1  0  0  0
  7  8  2  0  0  0
  7  9  1  0  0  0
  9 48  1  0  0  0
 48 49  1  0  0  0
 49 50  2  0  0  0
 50 51  1  0  0  0
 51 52  2  0  0  0
 52 53  1  0  0  0
 53 54  2  0  0  0
  9 10  1  0  0  0
 10 11  1  0  0  0
 11 12  2  0  0  0
 11 13  1  0  0  0
 13 55  1  0  0  0
 55 56  1  0  0  0
 56 57  1  0  0  0
 57 58  1  0  0  0
 57 59  2  0  0  0
 13 14  1  0  0  0
 14 15  1  0  0  0
 15 16  2  0  0  0
 15 17  1  0  0  0
 17 18  1  0  0  0
 18 19  1  0  0  0
 19 20  1  0  0  0
 20 21  1  0  0  0
 21 22  1  0  0  0
 22 23  2  0  0  0
 22 24  1  0  0  0
 24 62  1  0  0  0
 62 63  1  0  0  0
 63 64  2  0  0  0
 64 65  1  0  0  0
 65 66  2  0  0  0
 66 67  1  0  0  0
 67 68  2  0  0  0
 24 25  1  0  0  0
 25 26  1  0  0  0
 26 27  2  0  0  0
 26 28  1  0  0  0
 28 69  1  0  0  0
 69 70  1  0  0  0
 70 71  2  0  0  0
 71 72  1  0  0  0
 72 73  2  0  0  0
 73 74  1  0  0  0
 74 75  2  0  0  0
 28 29  1  0  0  0
 29 30  1  0  0  0
 30 31  2  0  0  0
 30  1  1  0  0  0
 47 42  1  0  0  0
 54 49  1  0  0  0
 21 17  1  0  0  0
 68 63  1  0  0  0
 75 70  1  0  0  0
  2 32  1  0  0  0
  6 33  1  0  0  0
 10 34  1  0  0  0
 58 60  1  0  0  0
 58 61  1  0  0  0
 14 35  1  0  0  0
 25 36  1  0  0  0
 29 37  1  0  0  0
M  END
> <minimizedAffinity>
6.37788

> <CNNscore>
0.3868658245

> <CNNaffinity>
7.4292402267

> <CNN_VS>
2.8741190434

> <CNNaffinity_variance>
1.0248014927

$$$$
[H]c1c([H])c([H])c(C([H])([H])[C@@]2([H])C(=O)N([H])[C@@]([H])(C([H])([H])c3c([H])c([H])c([H])c([H])c3[H])C(=O)N([H])[C@@]([H])(C([H])(C([H])([H])[H])C([H])([H])[H])C(=O)N([H])[C@@]([H])(C([H])([H])c3c([H])c([H])c([H])c([H])c3[H])C(=O)N([H])[C@@]([H])(C([H])([H])c3c([H])c([H])c([H])c([H])c3[H])C(=O)N3C([H])([H])C([H])([H])C([H])([H])[C@@]3([H])C(=O)N([H])[C@@]([H])(C([H])([H])C([H])([H])C(=O)N([H])[H])C(=O)N2[H])c([H])c1[H]


 75 80  0  0  0  0  0  0  0  0999 V2000
  -91.0577   31.6722   -2.8634 C   0  0  0  0  0  0  0  0  0  0  0  0
  -91.8661   30.7932   -2.1200 N   0  0  0  0  0  0  0  0  0  0  0  0
  -92.9769   30.0121   -2.4893 C   0  0  0  0  0  0  0  0  0  0  0  0
  -94.1109   30.2157   -1.8795 O   0  0  0  0  0  0  0  0  0  0  0  0
  -93.0590   28.9478   -3.5021 C   0  0  0  0  0  0  0  0  0  0  0  0
  -93.6545   27.7968   -2.8113 N   0  0  0  0  0  0  0  0  0  0  0  0
  -93.3040   26.4537   -2.9435 C   0  0  0  0  0  0  0  0  0  0  0  0
  -94.2288   25.6176   -3.2576 O   0  0  0  0  0  0  0  0  0  0  0  0
  -91.9552   25.8701   -2.7539 C   0  0  0  0  0  0  0  0  0  0  0  0
  -92.0211   24.6946   -1.9009 N   0  0  0  0  0  0  0  0  0  0  0  0
  -91.7423   24.5723   -0.5446 C   0  0  0  0  0  0  0  0  0  0  0  0
  -90.8632   23.6744   -0.2314 O   0  0  0  0  0  0  0  0  0  0  0  0
  -92.3137   25.3255    0.5884 C   0  0  0  0  0  0  0  0  0  0  0  0
  -92.0450   26.7287    0.6027 N   0  0  0  0  0  0  0  0  0  0  0  0
  -91.6293   27.4102    1.7794 C   0  0  0  0  0  0  0  0  0  0  0  0
  -91.8819   28.6576    1.9269 O   0  0  0  0  0  0  0  0  0  0  0  0
  -90.8967   26.7893    2.9074 C   0  0  0  0  0  0  0  0  0  0  0  0
  -91.9439   26.4897    3.9694 C   0  0  0  0  0  0  0  0  0  0  0  0
  -91.6106   27.4850    5.0657 C   0  0  0  0  0  0  0  0  0  0  0  0
  -90.1164   27.5283    4.9598 C   0  0  0  0  0  0  0  0  0  0  0  0
  -89.9102   27.6379    3.5021 N   0  0  0  0  0  0  0  0  0  0  0  0
  -88.9344   28.4118    2.8262 C   0  0  0  0  0  0  0  0  0  0  0  0
  -88.4328   29.3939    3.4842 O   0  0  0  0  0  0  0  0  0  0  0  0
  -88.4553   28.1826    1.4419 C   0  0  0  0  0  0  0  0  0  0  0  0
  -87.7008   29.3313    1.0168 N   0  0  0  0  0  0  0  0  0  0  0  0
  -87.9397   30.2120   -0.0319 C   0  0  0  0  0  0  0  0  0  0  0  0
  -87.7964   31.4580    0.2144 O   0  0  0  0  0  0  0  0  0  0  0  0
  -88.3499   29.8021   -1.4240 C   0  0  0  0  0  0  0  0  0  0  0  0
  -88.6206   30.9989   -2.1906 N   0  0  0  0  0  0  0  0  0  0  0  0
  -89.6460   31.3164   -3.0872 C   0  0  0  0  0  0  0  0  0  0  0  0
  -89.3346   31.3110   -4.3583 O   0  0  0  0  0  0  0  0  0  0  0  0
  -91.5999   30.7057   -1.0824 H   0  0  0  0  0  0  0  0  0  0  0  0
  -94.4505   28.0584   -2.1507 H   0  0  0  0  0  0  0  0  0  0  0  0
  -92.3372   23.8180   -2.4298 H   0  0  0  0  0  0  0  0  0  0  0  0
  -92.1288   27.3804   -0.2286 H   0  0  0  0  0  0  0  0  0  0  0  0
  -86.8298   29.5268    1.6035 H   0  0  0  0  0  0  0  0  0  0  0  0
  -87.8544   31.7470   -2.0230 H   0  0  0  0  0  0  0  0  0  0  0  0
  -89.8492   33.6710   -1.8851 C   0  0  0  0  0  0  0  0  0  0  0  0
  -91.1546   33.1261   -2.3798 C   0  0  0  0  0  0  0  0  0  0  0  0
  -91.6551   34.0549   -3.4397 C   0  0  0  0  0  0  0  0  0  0  0  0
  -94.0169   29.2121   -4.6414 C   0  0  0  0  0  0  0  0  0  0  0  0
  -94.0785   30.5614   -5.1536 C   0  0  0  0  0  0  0  0  0  0  0  0
  -93.1430   31.0662   -6.0268 C   0  0  0  0  0  0  0  0  0  0  0  0
  -93.2250   32.3605   -6.5093 C   0  0  0  0  0  0  0  0  0  0  0  0
  -94.2789   33.1750   -6.1034 C   0  0  0  0  0  0  0  0  0  0  0  0
  -95.2231   32.6874   -5.2308 C   0  0  0  0  0  0  0  0  0  0  0  0
  -95.1113   31.3931   -4.7691 C   0  0  0  0  0  0  0  0  0  0  0  0
  -91.3283   25.6093   -4.0953 C   0  0  0  0  0  0  0  0  0  0  0  0
  -92.0551   26.0599   -5.2759 C   0  0  0  0  0  0  0  0  0  0  0  0
  -93.1785   25.3634   -5.6706 C   0  0  0  0  0  0  0  0  0  0  0  0
  -93.9053   25.7185   -6.7846 C   0  0  0  0  0  0  0  0  0  0  0  0
  -93.5124   26.8008   -7.5407 C   0  0  0  0  0  0  0  0  0  0  0  0
  -92.3950   27.5023   -7.1568 C   0  0  0  0  0  0  0  0  0  0  0  0
  -91.6801   27.1384   -6.0451 C   0  0  0  0  0  0  0  0  0  0  0  0
  -93.8315   25.1520    0.7103 C   0  0  0  0  0  0  0  0  0  0  0  0
  -94.2972   24.0738   -0.2225 C   0  0  0  0  0  0  0  0  0  0  0  0
  -94.3952   22.7777    0.4732 C   0  0  0  0  0  0  0  0  0  0  0  0
  -95.2200   21.7005    0.0637 N   0  0  0  0  0  0  0  0  0  0  0  0
  -93.6979   22.6002    1.5126 O   0  0  0  0  0  0  0  0  0  0  0  0
  -95.7615   21.2007    0.8097 H   0  0  0  0  0  0  0  0  0  0  0  0
  -95.3376   21.3605   -0.9095 H   0  0  0  0  0  0  0  0  0  0  0  0
  -87.6825   26.8948    1.3759 C   0  0  0  0  0  0  0  0  0  0  0  0
  -88.1829   25.8155    2.2671 C   0  0  0  0  0  0  0  0  0  0  0  0
  -87.7802   25.6957    3.5765 C   0  0  0  0  0  0  0  0  0  0  0  0
  -88.2476   24.7032    4.4148 C   0  0  0  0  0  0  0  0  0  0  0  0
  -89.1546   23.7976    3.9166 C   0  0  0  0  0  0  0  0  0  0  0  0
  -89.5632   23.9098    2.6086 C   0  0  0  0  0  0  0  0  0  0  0  0
  -89.0908   24.9016    1.7846 C   0  0  0  0  0  0  0  0  0  0  0  0
  -87.1433   29.1235   -2.1028 C   0  0  0  0  0  0  0  0  0  0  0  0
  -85.8678   29.3643   -1.3696 C   0  0  0  0  0  0  0  0  0  0  0  0
  -85.4626   28.4164   -0.4477 C   0  0  0  0  0  0  0  0  0  0  0  0
  -84.2953   28.5859    0.2509 C   0  0  0  0  0  0  0  0  0  0  0  0
  -83.4688   29.6784    0.0901 C   0  0  0  0  0  0  0  0  0  0  0  0
  -83.8957   30.6068   -0.8332 C   0  0  0  0  0  0  0  0  0  0  0  0
  -85.0628   30.4585   -1.5461 C   0  0  0  0  0  0  0  0  0  0  0  0
 38 39  1  0  0  0
 39 40  1  0  0  0
 39  1  1  0  0  0
  1  2  1  0  0  0
  2  3  1  0  0  0
  3  4  2  0  0  0
  3  5  1  0  0  0
  5 41  1  0  0  0
 41 42  1  0  0  0
 42 43  2  0  0  0
 43 44  1  0  0  0
 44 45  2  0  0  0
 45 46  1  0  0  0
 46 47  2  0  0  0
  5  6  1  0  0  0
  6  7  1  0  0  0
  7  8  2  0  0  0
  7  9  1  0  0  0
  9 48  1  0  0  0
 48 49  1  0  0  0
 49 50  2  0  0  0
 50 51  1  0  0  0
 51 52  2  0  0  0
 52 53  1  0  0  0
 53 54  2  0  0  0
  9 10  1  0  0  0
 10 11  1  0  0  0
 11 12  2  0  0  0
 11 13  1  0  0  0
 13 55  1  0  0  0
 55 56  1  0  0  0
 56 57  1  0  0  0
 57 58  1  0  0  0
 57 59  2  0  0  0
 13 14  1  0  0  0
 14 15  1  0  0  0
 15 16  2  0  0  0
 15 17  1  0  0  0
 17 18  1  0  0  0
 18 19  1  0  0  0
 19 20  1  0  0  0
 20 21  1  0  0  0
 21 22  1  0  0  0
 22 23  2  0  0  0
 22 24  1  0  0  0
 24 62  1  0  0  0
 62 63  1  0  0  0
 63 64  2  0  0  0
 64 65  1  0  0  0
 65 66  2  0  0  0
 66 67  1  0  0  0
 67 68  2  0  0  0
 24 25  1  0  0  0
 25 26  1  0  0  0
 26 27  2  0  0  0
 26 28  1  0  0  0
 28 69  1  0  0  0
 69 70  1  0  0  0
 70 71  2  0  0  0
 71 72  1  0  0  0
 72 73  2  0  0  0
 73 74  1  0  0  0
 74 75  2  0  0  0
 28 29  1  0  0  0
 29 30  1  0  0  0
 30 31  2  0  0  0
 30  1  1  0  0  0
 47 42  1  0  0  0
 54 49  1  0  0  0
 21 17  1  0  0  0
 68 63  1  0  0  0
 75 70  1  0  0  0
  2 32  1  0  0  0
  6 33  1  0  0  0
 10 34  1  0  0  0
 58 60  1  0  0  0
 58 61  1  0  0  0
 14 35  1  0  0  0
 25 36  1  0  0  0
 29 37  1  0  0  0
M  END
> <minimizedAffinity>
13.36393

> <CNNscore>
0.3781228662

> <CNNaffinity>
6.6685438156

> <CNN_VS>
2.5215289593

> <CNNaffinity_variance>
1.6179723740

$$$$
[H]c1c([H])c([H])c(C([H])([H])[C@@]2([H])C(=O)N([H])[C@@]([H])(C([H])([H])c3c([H])c([H])c([H])c([H])c3[H])C(=O)N([H])[C@@]([H])(C([H])(C([H])([H])[H])C([H])([H])[H])C(=O)N([H])[C@@]([H])(C([H])([H])c3c([H])c([H])c([H])c([H])c3[H])C(=O)N([H])[C@@]([H])(C([H])([H])c3c([H])c([H])c([H])c([H])c3[H])C(=O)N3C([H])([H])C([H])([H])C([H])([H])[C@@]3([H])C(=O)N([H])[C@@]([H])(C([H])([H])C([H])([H])C(=O)N([H])[H])C(=O)N2[H])c([H])c1[H]


 75 80  0  0  0  0  0  0  0  0999 V2000
  -91.6879   37.3713   -4.1385 C   0  0  0  0  0  0  0  0  0  0  0  0
  -92.3982   36.2063   -3.7961 N   0  0  0  0  0  0  0  0  0  0  0  0
  -93.6009   35.6695   -4.2916 C   0  0  0  0  0  0  0  0  0  0  0  0
  -94.5920   35.4948   -3.4631 O   0  0  0  0  0  0  0  0  0  0  0  0
  -93.9267   35.2510   -5.6642 C   0  0  0  0  0  0  0  0  0  0  0  0
  -94.4532   33.8857   -5.5413 N   0  0  0  0  0  0  0  0  0  0  0  0
  -94.2111   32.8037   -6.3870 C   0  0  0  0  0  0  0  0  0  0  0  0
  -95.2245   32.1993   -6.8975 O   0  0  0  0  0  0  0  0  0  0  0  0
  -92.8865   32.2591   -6.7673 C   0  0  0  0  0  0  0  0  0  0  0  0
  -92.8652   30.8131   -6.6176 N   0  0  0  0  0  0  0  0  0  0  0  0
  -92.3531   30.0412   -5.5811 C   0  0  0  0  0  0  0  0  0  0  0  0
  -91.4855   29.1437   -5.9259 O   0  0  0  0  0  0  0  0  0  0  0  0
  -92.6652   30.1037   -4.1402 C   0  0  0  0  0  0  0  0  0  0  0  0
  -92.3173   31.3219   -3.4795 N   0  0  0  0  0  0  0  0  0  0  0  0
  -91.6565   31.3407   -2.2206 C   0  0  0  0  0  0  0  0  0  0  0  0
  -91.8054   32.3362   -1.4277 O   0  0  0  0  0  0  0  0  0  0  0  0
  -90.7692   30.2700   -1.7100 C   0  0  0  0  0  0  0  0  0  0  0  0
  -91.6226   29.4375   -0.7649 C   0  0  0  0  0  0  0  0  0  0  0  0
  -91.0391   29.7647    0.5974 C   0  0  0  0  0  0  0  0  0  0  0  0
  -89.5888   29.9162    0.2519 C   0  0  0  0  0  0  0  0  0  0  0  0
  -89.6438   30.7476   -0.9669 N   0  0  0  0  0  0  0  0  0  0  0  0
  -88.7631   31.7947   -1.3355 C   0  0  0  0  0  0  0  0  0  0  0  0
  -88.0945   32.3364   -0.3822 O   0  0  0  0  0  0  0  0  0  0  0  0
  -88.5566   32.3074   -2.7113 C   0  0  0  0  0  0  0  0  0  0  0  0
  -87.8260   33.5446   -2.6397 N   0  0  0  0  0  0  0  0  0  0  0  0
  -88.1992   34.8208   -3.0454 C   0  0  0  0  0  0  0  0  0  0  0  0
  -87.9415   35.7818   -2.2432 O   0  0  0  0  0  0  0  0  0  0  0  0
  -88.8777   35.1446   -4.3527 C   0  0  0  0  0  0  0  0  0  0  0  0
  -89.2126   36.5522   -4.3562 N   0  0  0  0  0  0  0  0  0  0  0  0
  -90.3632   37.2329   -4.7673 C   0  0  0  0  0  0  0  0  0  0  0  0
  -90.2878   37.8758   -5.9047 O   0  0  0  0  0  0  0  0  0  0  0  0
  -91.9541   35.6233   -3.0101 H   0  0  0  0  0  0  0  0  0  0  0  0
  -95.0999   33.7496   -4.7036 H   0  0  0  0  0  0  0  0  0  0  0  0
  -93.3222   30.3058   -7.4433 H   0  0  0  0  0  0  0  0  0  0  0  0
  -92.5121   32.2976   -3.8438 H   0  0  0  0  0  0  0  0  0  0  0  0
  -86.8534   33.4563   -2.2070 H   0  0  0  0  0  0  0  0  0  0  0  0
  -88.3866   37.1471   -3.9841 H   0  0  0  0  0  0  0  0  0  0  0  0
  -90.7672   39.5797   -3.3091 C   0  0  0  0  0  0  0  0  0  0  0  0
  -91.6110   38.3839   -2.9871 C   0  0  0  0  0  0  0  0  0  0  0  0
  -92.9564   38.8846   -2.5679 C   0  0  0  0  0  0  0  0  0  0  0  0
  -95.0580   36.0097   -6.3201 C   0  0  0  0  0  0  0  0  0  0  0  0
  -94.7160   37.2148   -7.0394 C   0  0  0  0  0  0  0  0  0  0  0  0
  -95.2181   37.5007   -8.2877 C   0  0  0  0  0  0  0  0  0  0  0  0
  -94.8812   38.6645   -8.9562 C   0  0  0  0  0  0  0  0  0  0  0  0
  -94.0128   39.5710   -8.3537 C   0  0  0  0  0  0  0  0  0  0  0  0
  -93.5008   39.3017   -7.1063 C   0  0  0  0  0  0  0  0  0  0  0  0
  -93.8570   38.1325   -6.4681 C   0  0  0  0  0  0  0  0  0  0  0  0
  -92.5290   32.7290   -8.1499 C   0  0  0  0  0  0  0  0  0  0  0  0
  -91.9320   34.0529   -8.2764 C   0  0  0  0  0  0  0  0  0  0  0  0
  -92.5831   35.0058   -9.0320 C   0  0  0  0  0  0  0  0  0  0  0  0
  -92.0717   36.2714   -9.2117 C   0  0  0  0  0  0  0  0  0  0  0  0
  -90.8730   36.6138   -8.6258 C   0  0  0  0  0  0  0  0  0  0  0  0
  -90.2157   35.6726   -7.8707 C   0  0  0  0  0  0  0  0  0  0  0  0
  -90.7359   34.4159   -7.6994 C   0  0  0  0  0  0  0  0  0  0  0  0
  -94.1433   29.8307   -3.8416 C   0  0  0  0  0  0  0  0  0  0  0  0
  -94.5459   28.5105   -4.4284 C   0  0  0  0  0  0  0  0  0  0  0  0
  -94.1922   27.3999   -3.5255 C   0  0  0  0  0  0  0  0  0  0  0  0
  -94.2592   27.4550   -2.1110 N   0  0  0  0  0  0  0  0  0  0  0  0
  -93.7990   26.3127   -4.0368 O   0  0  0  0  0  0  0  0  0  0  0  0
  -93.4543   27.0474   -1.5767 H   0  0  0  0  0  0  0  0  0  0  0  0
  -95.0337   27.8634   -1.5544 H   0  0  0  0  0  0  0  0  0  0  0  0
  -87.8847   31.2575   -3.5516 C   0  0  0  0  0  0  0  0  0  0  0  0
  -87.6469   29.9607   -2.8652 C   0  0  0  0  0  0  0  0  0  0  0  0
  -86.7207   29.8192   -1.8587 C   0  0  0  0  0  0  0  0  0  0  0  0
  -86.5005   28.6214   -1.2081 C   0  0  0  0  0  0  0  0  0  0  0  0
  -87.2406   27.5252   -1.5845 C   0  0  0  0  0  0  0  0  0  0  0  0
  -88.1691   27.6574   -2.5897 C   0  0  0  0  0  0  0  0  0  0  0  0
  -88.3789   28.8544   -3.2294 C   0  0  0  0  0  0  0  0  0  0  0  0
  -87.8555   34.9458   -5.4895 C   0  0  0  0  0  0  0  0  0  0  0  0
  -87.1575   36.2113   -5.8556 C   0  0  0  0  0  0  0  0  0  0  0  0
  -87.3273   36.6956   -7.1398 C   0  0  0  0  0  0  0  0  0  0  0  0
  -86.7120   37.8577   -7.5276 C   0  0  0  0  0  0  0  0  0  0  0  0
  -85.9055   38.6023   -6.6924 C   0  0  0  0  0  0  0  0  0  0  0  0
  -85.7530   38.0976   -5.4201 C   0  0  0  0  0  0  0  0  0  0  0  0
  -86.3603   36.9341   -5.0080 C   0  0  0  0  0  0  0  0  0  0  0  0
 38 39  1  0  0  0
 39 40  1  0  0  0
 39  1  1  0  0  0
  1  2  1  0  0  0
  2  3  1  0  0  0
  3  4  2  0  0  0
  3  5  1  0  0  0
  5 41  1  0  0  0
 41 42  1  0  0  0
 42 43  2  0  0  0
 43 44  1  0  0  0
 44 45  2  0  0  0
 45 46  1  0  0  0
 46 47  2  0  0  0
  5  6  1  0  0  0
  6  7  1  0  0  0
  7  8  2  0  0  0
  7  9  1  0  0  0
  9 48  1  0  0  0
 48 49  1  0  0  0
 49 50  2  0  0  0
 50 51  1  0  0  0
 51 52  2  0  0  0
 52 53  1  0  0  0
 53 54  2  0  0  0
  9 10  1  0  0  0
 10 11  1  0  0  0
 11 12  2  0  0  0
 11 13  1  0  0  0
 13 55  1  0  0  0
 55 56  1  0  0  0
 56 57  1  0  0  0
 57 58  1  0  0  0
 57 59  2  0  0  0
 13 14  1  0  0  0
 14 15  1  0  0  0
 15 16  2  0  0  0
 15 17  1  0  0  0
 17 18  1  0  0  0
 18 19  1  0  0  0
 19 20  1  0  0  0
 20 21  1  0  0  0
 21 22  1  0  0  0
 22 23  2  0  0  0
 22 24  1  0  0  0
 24 62  1  0  0  0
 62 63  1  0  0  0
 63 64  2  0  0  0
 64 65  1  0  0  0
 65 66  2  0  0  0
 66 67  1  0  0  0
 67 68  2  0  0  0
 24 25  1  0  0  0
 25 26  1  0  0  0
 26 27  2  0  0  0
 26 28  1  0  0  0
 28 69  1  0  0  0
 69 70  1  0  0  0
 70 71  2  0  0  0
 71 72  1  0  0  0
 72 73  2  0  0  0
 73 74  1  0  0  0
 74 75  2  0  0  0
 28 29  1  0  0  0
 29 30  1  0  0  0
 30 31  2  0  0  0
 30  1  1  0  0  0
 47 42  1  0  0  0
 54 49  1  0  0  0
 21 17  1  0  0  0
 68 63  1  0  0  0
 75 70  1  0  0  0
  2 32  1  0  0  0
  6 33  1  0  0  0
 10 34  1  0  0  0
 58 60  1  0  0  0
 58 61  1  0  0  0
 14 35  1  0  0  0
 25 36  1  0  0  0
 29 37  1  0  0  0
M  END
> <minimizedAffinity>
-2.40053

> <CNNscore>
0.3567147851

> <CNNaffinity>
7.3288397789

> <CNN_VS>
2.6143054962

> <CNNaffinity_variance>
1.2148060799

$$$$
[H]c1c([H])c([H])c(C([H])([H])[C@@]2([H])C(=O)N([H])[C@@]([H])(C([H])([H])c3c([H])c([H])c([H])c([H])c3[H])C(=O)N([H])[C@@]([H])(C([H])(C([H])([H])[H])C([H])([H])[H])C(=O)N([H])[C@@]([H])(C([H])([H])c3c([H])c([H])c([H])c([H])c3[H])C(=O)N([H])[C@@]([H])(C([H])([H])c3c([H])c([H])c([H])c([H])c3[H])C(=O)N3C([H])([H])C([H])([H])C([H])([H])[C@@]3([H])C(=O)N([H])[C@@]([H])(C([H])([H])C([H])([H])C(=O)N([H])[H])C(=O)N2[H])c([H])c1[H]


 75 80  0  0  0  0  0  0  0  0999 V2000
  -87.2768   28.6498   -1.5460 C   0  0  0  0  0  0  0  0  0  0  0  0
  -87.9095   27.3948   -1.4843 N   0  0  0  0  0  0  0  0  0  0  0  0
  -87.9376   26.4148   -0.4749 C   0  0  0  0  0  0  0  0  0  0  0  0
  -87.4852   25.2239   -0.7513 O   0  0  0  0  0  0  0  0  0  0  0  0
  -88.4259   26.5306    0.9084 C   0  0  0  0  0  0  0  0  0  0  0  0
  -89.3586   25.4106    1.0881 N   0  0  0  0  0  0  0  0  0  0  0  0
  -90.5767   25.4214    1.7666 C   0  0  0  0  0  0  0  0  0  0  0  0
  -90.7515   24.5602    2.7051 O   0  0  0  0  0  0  0  0  0  0  0  0
  -91.7184   26.3326    1.5174 C   0  0  0  0  0  0  0  0  0  0  0  0
  -92.9609   25.5833    1.4254 N   0  0  0  0  0  0  0  0  0  0  0  0
  -93.6608   25.1711    0.2973 C   0  0  0  0  0  0  0  0  0  0  0  0
  -94.8994   25.5446    0.2381 O   0  0  0  0  0  0  0  0  0  0  0  0
  -93.1849   24.3635   -0.8422 C   0  0  0  0  0  0  0  0  0  0  0  0
  -92.1477   24.9493   -1.6312 N   0  0  0  0  0  0  0  0  0  0  0  0
  -92.1801   24.9437   -3.0528 C   0  0  0  0  0  0  0  0  0  0  0  0
  -91.0894   24.9845   -3.7240 O   0  0  0  0  0  0  0  0  0  0  0  0
  -93.4113   24.8930   -3.8749 C   0  0  0  0  0  0  0  0  0  0  0  0
  -93.5719   23.4396   -4.2948 C   0  0  0  0  0  0  0  0  0  0  0  0
  -93.2804   23.4818   -5.7837 C   0  0  0  0  0  0  0  0  0  0  0  0
  -93.8638   24.8139   -6.1457 C   0  0  0  0  0  0  0  0  0  0  0  0
  -93.3519   25.6820   -5.0668 N   0  0  0  0  0  0  0  0  0  0  0  0
  -92.9034   27.0215   -5.1791 C   0  0  0  0  0  0  0  0  0  0  0  0
  -92.5428   27.4033   -6.3510 O   0  0  0  0  0  0  0  0  0  0  0  0
  -92.8173   28.0008   -4.0692 C   0  0  0  0  0  0  0  0  0  0  0  0
  -92.0497   29.1346   -4.5106 N   0  0  0  0  0  0  0  0  0  0  0  0
  -90.8483   29.6371   -4.0241 C   0  0  0  0  0  0  0  0  0  0  0  0
  -89.9675   29.9697   -4.8885 O   0  0  0  0  0  0  0  0  0  0  0  0
  -90.5182   29.8157   -2.5635 C   0  0  0  0  0  0  0  0  0  0  0  0
  -89.1404   30.2445   -2.4565 N   0  0  0  0  0  0  0  0  0  0  0  0
  -88.1126   29.8618   -1.5886 C   0  0  0  0  0  0  0  0  0  0  0  0
  -87.8075   30.7047   -0.6352 O   0  0  0  0  0  0  0  0  0  0  0  0
  -88.4631   27.1262   -2.3654 H   0  0  0  0  0  0  0  0  0  0  0  0
  -89.0245   24.4995    0.6445 H   0  0  0  0  0  0  0  0  0  0  0  0
  -93.3612   25.3280    2.3860 H   0  0  0  0  0  0  0  0  0  0  0  0
  -91.2801   25.4254   -1.2527 H   0  0  0  0  0  0  0  0  0  0  0  0
  -92.4767   29.6597   -5.3370 H   0  0  0  0  0  0  0  0  0  0  0  0
  -88.9174   31.0144   -3.1860 H   0  0  0  0  0  0  0  0  0  0  0  0
  -85.3339   27.5032   -2.6964 C   0  0  0  0  0  0  0  0  0  0  0  0
  -86.2019   28.7235   -2.6397 C   0  0  0  0  0  0  0  0  0  0  0  0
  -86.7797   28.9262   -4.0041 C   0  0  0  0  0  0  0  0  0  0  0  0
  -87.3865   26.3023    1.9822 C   0  0  0  0  0  0  0  0  0  0  0  0
  -86.4241   27.3562    2.2051 C   0  0  0  0  0  0  0  0  0  0  0  0
  -86.6268   28.3639    3.1193 C   0  0  0  0  0  0  0  0  0  0  0  0
  -85.6881   29.3605    3.3205 C   0  0  0  0  0  0  0  0  0  0  0  0
  -84.5082   29.3464    2.5814 C   0  0  0  0  0  0  0  0  0  0  0  0
  -84.2886   28.3471    1.6629 C   0  0  0  0  0  0  0  0  0  0  0  0
  -85.2448   27.3695    1.4870 C   0  0  0  0  0  0  0  0  0  0  0  0
  -91.7384   27.4100    2.5658 C   0  0  0  0  0  0  0  0  0  0  0  0
  -90.9350   27.1974    3.7635 C   0  0  0  0  0  0  0  0  0  0  0  0
  -90.3044   25.9824    3.9335 C   0  0  0  0  0  0  0  0  0  0  0  0
  -89.5443   25.7023    5.0466 C   0  0  0  0  0  0  0  0  0  0  0  0
  -89.3983   26.6541    6.0317 C   0  0  0  0  0  0  0  0  0  0  0  0
  -90.0218   27.8682    5.8729 C   0  0  0  0  0  0  0  0  0  0  0  0
  -90.7758   28.1345    4.7595 C   0  0  0  0  0  0  0  0  0  0  0  0
  -92.7043   22.9703   -0.4216 C   0  0  0  0  0  0  0  0  0  0  0  0
  -93.3209   22.5944    0.8929 C   0  0  0  0  0  0  0  0  0  0  0  0
  -92.8980   21.2449    1.3094 C   0  0  0  0  0  0  0  0  0  0  0  0
  -93.4694   20.0369    0.8376 N   0  0  0  0  0  0  0  0  0  0  0  0
  -91.9578   21.1426    2.1482 O   0  0  0  0  0  0  0  0  0  0  0  0
  -93.6661   19.2903    1.5472 H   0  0  0  0  0  0  0  0  0  0  0  0
  -93.7120   19.8233   -0.1484 H   0  0  0  0  0  0  0  0  0  0  0  0
  -94.1984   28.3554   -3.5932 C   0  0  0  0  0  0  0  0  0  0  0  0
  -94.5168   29.8072   -3.6146 C   0  0  0  0  0  0  0  0  0  0  0  0
  -94.6612   30.5123   -4.7863 C   0  0  0  0  0  0  0  0  0  0  0  0
  -94.9674   31.8583   -4.8162 C   0  0  0  0  0  0  0  0  0  0  0  0
  -95.1350   32.5192   -3.6220 C   0  0  0  0  0  0  0  0  0  0  0  0
  -94.9928   31.8222   -2.4455 C   0  0  0  0  0  0  0  0  0  0  0  0
  -94.6879   30.4833   -2.4289 C   0  0  0  0  0  0  0  0  0  0  0  0
  -91.3709   30.9768   -2.0143 C   0  0  0  0  0  0  0  0  0  0  0  0
  -90.9757   32.2947   -2.5881 C   0  0  0  0  0  0  0  0  0  0  0  0
  -91.8733   32.9310   -3.4260 C   0  0  0  0  0  0  0  0  0  0  0  0
  -91.5623   34.1471   -3.9772 C   0  0  0  0  0  0  0  0  0  0  0  0
  -90.3707   34.8013   -3.7438 C   0  0  0  0  0  0  0  0  0  0  0  0
  -89.4951   34.1460   -2.9068 C   0  0  0  0  0  0  0  0  0  0  0  0
  -89.7849   32.9257   -2.3419 C   0  0  0  0  0  0  0  0  0  0  0  0
 38 39  1  0  0  0
 39 40  1  0  0  0
 39  1  1  0  0  0
  1  2  1  0  0  0
  2  3  1  0  0  0
  3  4  2  0  0  0
  3  5  1  0  0  0
  5 41  1  0  0  0
 41 42  1  0  0  0
 42 43  2  0  0  0
 43 44  1  0  0  0
 44 45  2  0  0  0
 45 46  1  0  0  0
 46 47  2  0  0  0
  5  6  1  0  0  0
  6  7  1  0  0  0
  7  8  2  0  0  0
  7  9  1  0  0  0
  9 48  1  0  0  0
 48 49  1  0  0  0
 49 50  2  0  0  0
 50 51  1  0  0  0
 51 52  2  0  0  0
 52 53  1  0  0  0
 53 54  2  0  0  0
  9 10  1  0  0  0
 10 11  1  0  0  0
 11 12  2  0  0  0
 11 13  1  0  0  0
 13 55  1  0  0  0
 55 56  1  0  0  0
 56 57  1  0  0  0
 57 58  1  0  0  0
 57 59  2  0  0  0
 13 14  1  0  0  0
 14 15  1  0  0  0
 15 16  2  0  0  0
 15 17  1  0  0  0
 17 18  1  0  0  0
 18 19  1  0  0  0
 19 20  1  0  0  0
 20 21  1  0  0  0
 21 22  1  0  0  0
 22 23  2  0  0  0
 22 24  1  0  0  0
 24 62  1  0  0  0
 62 63  1  0  0  0
 63 64  2  0  0  0
 64 65  1  0  0  0
 65 66  2  0  0  0
 66 67  1  0  0  0
 67 68  2  0  0  0
 24 25  1  0  0  0
 25 26  1  0  0  0
 26 27  2  0  0  0
 26 28  1  0  0  0
 28 69  1  0  0  0
 69 70  1  0  0  0
 70 71  2  0  0  0
 71 72  1  0  0  0
 72 73  2  0  0  0
 73 74  1  0  0  0
 74 75  2  0  0  0
 28 29  1  0  0  0
 29 30  1  0  0  0
 30 31  2  0  0  0
 30  1  1  0  0  0
 47 42  1  0  0  0
 54 49  1  0  0  0
 21 17  1  0  0  0
 68 63  1  0  0  0
 75 70  1  0  0  0
  2 32  1  0  0  0
  6 33  1  0  0  0
 10 34  1  0  0  0
 58 60  1  0  0  0
 58 61  1  0  0  0
 14 35  1  0  0  0
 25 36  1  0  0  0
 29 37  1  0  0  0
M  END
> <minimizedAffinity>
9.37621

> <CNNscore>
0.3476856947

> <CNNaffinity>
7.1608886719

> <CNN_VS>
2.4897384644

> <CNNaffinity_variance>
1.3348248005

$$$$
[H]c1c([H])c([H])c(C([H])([H])[C@@]2([H])C(=O)N([H])[C@@]([H])(C([H])([H])c3c([H])c([H])c([H])c([H])c3[H])C(=O)N([H])[C@@]([H])(C([H])(C([H])([H])[H])C([H])([H])[H])C(=O)N([H])[C@@]([H])(C([H])([H])c3c([H])c([H])c([H])c([H])c3[H])C(=O)N([H])[C@@]([H])(C([H])([H])c3c([H])c([H])c([H])c([H])c3[H])C(=O)N3C([H])([H])C([H])([H])C([H])([H])[C@@]3([H])C(=O)N([H])[C@@]([H])(C([H])([H])C([H])([H])C(=O)N([H])[H])C(=O)N2[H])c([H])c1[H]


 75 80  0  0  0  0  0  0  0  0999 V2000
  -91.0210   25.1085   -1.8157 C   0  0  0  0  0  0  0  0  0  0  0  0
  -90.1516   26.0684   -2.3650 N   0  0  0  0  0  0  0  0  0  0  0  0
  -90.3185   26.9768   -3.4267 C   0  0  0  0  0  0  0  0  0  0  0  0
  -89.5071   26.9005   -4.4441 O   0  0  0  0  0  0  0  0  0  0  0  0
  -91.3114   28.0532   -3.5707 C   0  0  0  0  0  0  0  0  0  0  0  0
  -90.5363   29.2588   -3.8905 N   0  0  0  0  0  0  0  0  0  0  0  0
  -90.7472   30.5534   -3.4170 C   0  0  0  0  0  0  0  0  0  0  0  0
  -90.8948   31.4943   -4.2806 O   0  0  0  0  0  0  0  0  0  0  0  0
  -90.8173   30.9743   -1.9980 C   0  0  0  0  0  0  0  0  0  0  0  0
  -89.9811   32.1412   -1.7681 N   0  0  0  0  0  0  0  0  0  0  0  0
  -88.7013   32.2170   -1.2308 C   0  0  0  0  0  0  0  0  0  0  0  0
  -88.5669   33.0036   -0.2107 O   0  0  0  0  0  0  0  0  0  0  0  0
  -87.4732   31.5244   -1.6661 C   0  0  0  0  0  0  0  0  0  0  0  0
  -87.4920   30.0994   -1.5641 N   0  0  0  0  0  0  0  0  0  0  0  0
  -86.4043   29.3628   -1.0197 C   0  0  0  0  0  0  0  0  0  0  0  0
  -86.1976   28.1519   -1.3837 O   0  0  0  0  0  0  0  0  0  0  0  0
  -85.4388   29.8833   -0.0240 C   0  0  0  0  0  0  0  0  0  0  0  0
  -84.2051   30.2923   -0.8146 C   0  0  0  0  0  0  0  0  0  0  0  0
  -83.1775   29.2545   -0.4020 C   0  0  0  0  0  0  0  0  0  0  0  0
  -83.5573   29.0387    1.0315 C   0  0  0  0  0  0  0  0  0  0  0  0
  -85.0266   28.9201    0.9503 N   0  0  0  0  0  0  0  0  0  0  0  0
  -85.8620   28.0446    1.6876 C   0  0  0  0  0  0  0  0  0  0  0  0
  -85.2963   27.0045    2.1849 O   0  0  0  0  0  0  0  0  0  0  0  0
  -87.3136   28.2300    1.9256 C   0  0  0  0  0  0  0  0  0  0  0  0
  -87.8571   27.0055    2.4499 N   0  0  0  0  0  0  0  0  0  0  0  0
  -88.8329   26.1688    1.9205 C   0  0  0  0  0  0  0  0  0  0  0  0
  -88.6023   24.9123    1.9613 O   0  0  0  0  0  0  0  0  0  0  0  0
  -90.1299   26.6371    1.3101 C   0  0  0  0  0  0  0  0  0  0  0  0
  -90.8188   25.4874    0.7652 N   0  0  0  0  0  0  0  0  0  0  0  0
  -91.5063   25.3000   -0.4383 C   0  0  0  0  0  0  0  0  0  0  0  0
  -92.8131   25.2815   -0.3690 O   0  0  0  0  0  0  0  0  0  0  0  0
  -89.1823   26.1141   -1.9031 H   0  0  0  0  0  0  0  0  0  0  0  0
  -89.7367   29.0851   -4.5753 H   0  0  0  0  0  0  0  0  0  0  0  0
  -90.4529   33.0537   -2.0727 H   0  0  0  0  0  0  0  0  0  0  0  0
  -88.2854   29.4699   -1.8753 H   0  0  0  0  0  0  0  0  0  0  0  0
  -87.4393   26.7043    3.3857 H   0  0  0  0  0  0  0  0  0  0  0  0
  -90.7868   24.6537    1.4571 H   0  0  0  0  0  0  0  0  0  0  0  0
  -89.9333   23.0946   -0.7324 C   0  0  0  0  0  0  0  0  0  0  0  0
  -90.5104   23.6712   -1.9895 C   0  0  0  0  0  0  0  0  0  0  0  0
  -91.5744   22.7340   -2.4649 C   0  0  0  0  0  0  0  0  0  0  0  0
  -92.2506   27.9132   -4.7470 C   0  0  0  0  0  0  0  0  0  0  0  0
  -93.0692   26.7242   -4.8013 C   0  0  0  0  0  0  0  0  0  0  0  0
  -93.5575   26.1083   -3.6723 C   0  0  0  0  0  0  0  0  0  0  0  0
  -94.3448   24.9729   -3.7482 C   0  0  0  0  0  0  0  0  0  0  0  0
  -94.6526   24.4377   -4.9962 C   0  0  0  0  0  0  0  0  0  0  0  0
  -94.1730   25.0397   -6.1356 C   0  0  0  0  0  0  0  0  0  0  0  0
  -93.3909   26.1697   -6.0242 C   0  0  0  0  0  0  0  0  0  0  0  0
  -92.2546   31.1735   -1.6042 C   0  0  0  0  0  0  0  0  0  0  0  0
  -93.2767   30.7219   -2.5404 C   0  0  0  0  0  0  0  0  0  0  0  0
  -93.4502   31.4155   -3.7201 C   0  0  0  0  0  0  0  0  0  0  0  0
  -94.4068   31.0594   -4.6439 C   0  0  0  0  0  0  0  0  0  0  0  0
  -95.2254   29.9789   -4.3985 C   0  0  0  0  0  0  0  0  0  0  0  0
  -95.0613   29.2804   -3.2267 C   0  0  0  0  0  0  0  0  0  0  0  0
  -94.1047   29.6453   -2.3151 C   0  0  0  0  0  0  0  0  0  0  0  0
  -87.0748   31.8720   -3.1045 C   0  0  0  0  0  0  0  0  0  0  0  0
  -86.4696   33.2436   -3.1479 C   0  0  0  0  0  0  0  0  0  0  0  0
  -87.2020   34.1161   -4.0838 C   0  0  0  0  0  0  0  0  0  0  0  0
  -86.8125   35.4326   -4.4351 N   0  0  0  0  0  0  0  0  0  0  0  0
  -88.2564   33.6701   -4.6199 O   0  0  0  0  0  0  0  0  0  0  0  0
  -87.5649   36.1621   -4.4696 H   0  0  0  0  0  0  0  0  0  0  0  0
  -85.8482   35.7415   -4.6614 H   0  0  0  0  0  0  0  0  0  0  0  0
  -87.5369   29.4197    2.8169 C   0  0  0  0  0  0  0  0  0  0  0  0
  -86.4329   30.4151    2.8243 C   0  0  0  0  0  0  0  0  0  0  0  0
  -86.2468   31.3160    1.8023 C   0  0  0  0  0  0  0  0  0  0  0  0
  -85.2309   32.2512    1.8055 C   0  0  0  0  0  0  0  0  0  0  0  0
  -84.3704   32.2807    2.8778 C   0  0  0  0  0  0  0  0  0  0  0  0
  -84.5490   31.3837    3.9043 C   0  0  0  0  0  0  0  0  0  0  0  0
  -85.5634   30.4582    3.8894 C   0  0  0  0  0  0  0  0  0  0  0  0
  -91.0282   27.1774    2.4406 C   0  0  0  0  0  0  0  0  0  0  0  0
  -90.5076   26.8344    3.7948 C   0  0  0  0  0  0  0  0  0  0  0  0
  -90.2255   27.8742    4.6619 C   0  0  0  0  0  0  0  0  0  0  0  0
  -89.7489   27.6148    5.9209 C   0  0  0  0  0  0  0  0  0  0  0  0
  -89.5234   26.3400    6.3970 C   0  0  0  0  0  0  0  0  0  0  0  0
  -89.8119   25.3237    5.5136 C   0  0  0  0  0  0  0  0  0  0  0  0
  -90.2910   25.5592    4.2458 C   0  0  0  0  0  0  0  0  0  0  0  0
 38 39  1  0  0  0
 39 40  1  0  0  0
 39  1  1  0  0  0
  1  2  1  0  0  0
  2  3  1  0  0  0
  3  4  2  0  0  0
  3  5  1  0  0  0
  5 41  1  0  0  0
 41 42  1  0  0  0
 42 43  2  0  0  0
 43 44  1  0  0  0
 44 45  2  0  0  0
 45 46  1  0  0  0
 46 47  2  0  0  0
  5  6  1  0  0  0
  6  7  1  0  0  0
  7  8  2  0  0  0
  7  9  1  0  0  0
  9 48  1  0  0  0
 48 49  1  0  0  0
 49 50  2  0  0  0
 50 51  1  0  0  0
 51 52  2  0  0  0
 52 53  1  0  0  0
 53 54  2  0  0  0
  9 10  1  0  0  0
 10 11  1  0  0  0
 11 12  2  0  0  0
 11 13  1  0  0  0
 13 55  1  0  0  0
 55 56  1  0  0  0
 56 57  1  0  0  0
 57 58  1  0  0  0
 57 59  2  0  0  0
 13 14  1  0  0  0
 14 15  1  0  0  0
 15 16  2  0  0  0
 15 17  1  0  0  0
 17 18  1  0  0  0
 18 19  1  0  0  0
 19 20  1  0  0  0
 20 21  1  0  0  0
 21 22  1  0  0  0
 22 23  2  0  0  0
 22 24  1  0  0  0
 24 62  1  0  0  0
 62 63  1  0  0  0
 63 64  2  0  0  0
 64 65  1  0  0  0
 65 66  2  0  0  0
 66 67  1  0  0  0
 67 68  2  0  0  0
 24 25  1  0  0  0
 25 26  1  0  0  0
 26 27  2  0  0  0
 26 28  1  0  0  0
 28 69  1  0  0  0
 69 70  1  0  0  0
 70 71  2  0  0  0
 71 72  1  0  0  0
 72 73  2  0  0  0
 73 74  1  0  0  0
 74 75  2  0  0  0
 28 29  1  0  0  0
 29 30  1  0  0  0
 30 31  2  0  0  0
 30  1  1  0  0  0
 47 42  1  0  0  0
 54 49  1  0  0  0
 21 17  1  0  0  0
 68 63  1  0  0  0
 75 70  1  0  0  0
  2 32  1  0  0  0
  6 33  1  0  0  0
 10 34  1  0  0  0
 58 60  1  0  0  0
 58 61  1  0  0  0
 14 35  1  0  0  0
 25 36  1  0  0  0
 29 37  1  0  0  0
M  END
> <minimizedAffinity>
1.56521

> <CNNscore>
0.3413315713

> <CNNaffinity>
7.5316405296

> <CNN_VS>
2.5707867146

> <CNNaffinity_variance>
0.6833230853

$$$$
[H]c1c([H])c([H])c(C([H])([H])[C@@]2([H])C(=O)N([H])[C@@]([H])(C([H])([H])c3c([H])c([H])c([H])c([H])c3[H])C(=O)N([H])[C@@]([H])(C([H])(C([H])([H])[H])C([H])([H])[H])C(=O)N([H])[C@@]([H])(C([H])([H])c3c([H])c([H])c([H])c([H])c3[H])C(=O)N([H])[C@@]([H])(C([H])([H])c3c([H])c([H])c([H])c([H])c3[H])C(=O)N3C([H])([H])C([H])([H])C([H])([H])[C@@]3([H])C(=O)N([H])[C@@]([H])(C([H])([H])C([H])([H])C(=O)N([H])[H])C(=O)N2[H])c([H])c1[H]


 75 80  0  0  0  0  0  0  0  0999 V2000
  -87.6023   28.8604   -2.6179 C   0  0  0  0  0  0  0  0  0  0  0  0
  -88.2890   27.6330   -2.5897 N   0  0  0  0  0  0  0  0  0  0  0  0
  -88.2714   26.5773   -1.6594 C   0  0  0  0  0  0  0  0  0  0  0  0
  -87.9078   25.3941   -2.0681 O   0  0  0  0  0  0  0  0  0  0  0  0
  -88.6207   26.6028   -0.2302 C   0  0  0  0  0  0  0  0  0  0  0  0
  -89.5877   25.5131   -0.0453 N   0  0  0  0  0  0  0  0  0  0  0  0
  -90.7344   25.5219    0.7480 C   0  0  0  0  0  0  0  0  0  0  0  0
  -90.8632   24.5966    1.6313 O   0  0  0  0  0  0  0  0  0  0  0  0
  -91.8469   26.4984    0.6815 C   0  0  0  0  0  0  0  0  0  0  0  0
  -93.1289   25.8131    0.6551 N   0  0  0  0  0  0  0  0  0  0  0  0
  -93.9518   25.5232   -0.4270 C   0  0  0  0  0  0  0  0  0  0  0  0
  -95.1701   25.9531   -0.3361 O   0  0  0  0  0  0  0  0  0  0  0  0
  -93.6269   24.7898   -1.6654 C   0  0  0  0  0  0  0  0  0  0  0  0
  -92.6403   25.3917   -2.5056 N   0  0  0  0  0  0  0  0  0  0  0  0
  -92.8068   25.5016   -3.9135 C   0  0  0  0  0  0  0  0  0  0  0  0
  -91.7836   25.5491   -4.6832 O   0  0  0  0  0  0  0  0  0  0  0  0
  -94.1111   25.5699   -4.6125 C   0  0  0  0  0  0  0  0  0  0  0  0
  -94.3838   24.1632   -5.1235 C   0  0  0  0  0  0  0  0  0  0  0  0
  -94.2321   24.3120   -6.6262 C   0  0  0  0  0  0  0  0  0  0  0  0
  -94.7789   25.6927   -6.8276 C   0  0  0  0  0  0  0  0  0  0  0  0
  -94.1245   26.4487   -5.7415 N   0  0  0  0  0  0  0  0  0  0  0  0
  -93.6213   27.7723   -5.7955 C   0  0  0  0  0  0  0  0  0  0  0  0
  -93.3540   28.2310   -6.9648 O   0  0  0  0  0  0  0  0  0  0  0  0
  -93.3817   28.6549   -4.6284 C   0  0  0  0  0  0  0  0  0  0  0  0
  -92.6028   29.7864   -5.0557 N   0  0  0  0  0  0  0  0  0  0  0  0
  -91.3370   30.1960   -4.6526 C   0  0  0  0  0  0  0  0  0  0  0  0
  -90.5259   30.5587   -5.5715 O   0  0  0  0  0  0  0  0  0  0  0  0
  -90.8620   30.2426   -3.2220 C   0  0  0  0  0  0  0  0  0  0  0  0
  -89.4605   30.6017   -3.2183 N   0  0  0  0  0  0  0  0  0  0  0  0
  -88.3761   30.1069   -2.4867 C   0  0  0  0  0  0  0  0  0  0  0  0
  -87.9403   30.8567   -1.5067 O   0  0  0  0  0  0  0  0  0  0  0  0
  -88.9360   27.4600   -3.4301 H   0  0  0  0  0  0  0  0  0  0  0  0
  -89.3434   24.6269   -0.5871 H   0  0  0  0  0  0  0  0  0  0  0  0
  -93.4492   25.4990    1.6282 H   0  0  0  0  0  0  0  0  0  0  0  0
  -91.7180   25.7983   -2.1789 H   0  0  0  0  0  0  0  0  0  0  0  0
  -93.0786   30.3939   -5.7943 H   0  0  0  0  0  0  0  0  0  0  0  0
  -89.2685   31.4174   -3.9058 H   0  0  0  0  0  0  0  0  0  0  0  0
  -86.5274   27.7124   -4.6027 C   0  0  0  0  0  0  0  0  0  0  0  0
  -86.6329   28.9753   -3.8029 C   0  0  0  0  0  0  0  0  0  0  0  0
  -87.0034   30.0741   -4.7473 C   0  0  0  0  0  0  0  0  0  0  0  0
  -87.4976   26.2446    0.7163 C   0  0  0  0  0  0  0  0  0  0  0  0
  -86.6129   27.3106    1.1255 C   0  0  0  0  0  0  0  0  0  0  0  0
  -86.8214   28.6237    0.7722 C   0  0  0  0  0  0  0  0  0  0  0  0
  -85.9637   29.6298    1.1806 C   0  0  0  0  0  0  0  0  0  0  0  0
  -84.8614   29.3093    1.9685 C   0  0  0  0  0  0  0  0  0  0  0  0
  -84.6369   28.0022    2.3311 C   0  0  0  0  0  0  0  0  0  0  0  0
  -85.5111   27.0241    1.9068 C   0  0  0  0  0  0  0  0  0  0  0  0
  -91.7135   27.4882    1.8053 C   0  0  0  0  0  0  0  0  0  0  0  0
  -90.8989   27.0996    2.9500 C   0  0  0  0  0  0  0  0  0  0  0  0
  -89.6375   27.6420    3.0825 C   0  0  0  0  0  0  0  0  0  0  0  0
  -88.8042   27.3091    4.1266 C   0  0  0  0  0  0  0  0  0  0  0  0
  -89.2274   26.4072    5.0781 C   0  0  0  0  0  0  0  0  0  0  0  0
  -90.4822   25.8607    4.9564 C   0  0  0  0  0  0  0  0  0  0  0  0
  -91.3023   26.2009    3.9118 C   0  0  0  0  0  0  0  0  0  0  0  0
  -93.1799   23.3480   -1.4005 C   0  0  0  0  0  0  0  0  0  0  0  0
  -91.7527   23.1710   -1.8264 C   0  0  0  0  0  0  0  0  0  0  0  0
  -90.9847   22.4299   -0.8093 C   0  0  0  0  0  0  0  0  0  0  0  0
  -91.5522   21.7590    0.3025 N   0  0  0  0  0  0  0  0  0  0  0  0
  -89.7268   22.3808   -0.9249 O   0  0  0  0  0  0  0  0  0  0  0  0
  -91.0757   21.8784    1.2289 H   0  0  0  0  0  0  0  0  0  0  0  0
  -92.3988   21.1594    0.2837 H   0  0  0  0  0  0  0  0  0  0  0  0
  -94.6921   29.0293   -3.9940 C   0  0  0  0  0  0  0  0  0  0  0  0
  -94.8704   30.4813   -3.7306 C   0  0  0  0  0  0  0  0  0  0  0  0
  -94.9858   31.4047   -4.7430 C   0  0  0  0  0  0  0  0  0  0  0  0
  -95.1624   32.7538   -4.5081 C   0  0  0  0  0  0  0  0  0  0  0  0
  -95.2256   33.1896   -3.2054 C   0  0  0  0  0  0  0  0  0  0  0  0
  -95.1114   32.2735   -2.1867 C   0  0  0  0  0  0  0  0  0  0  0  0
  -94.9359   30.9340   -2.4333 C   0  0  0  0  0  0  0  0  0  0  0  0
  -91.5995   31.3915   -2.5057 C   0  0  0  0  0  0  0  0  0  0  0  0
  -91.1733   32.7340   -2.9944 C   0  0  0  0  0  0  0  0  0  0  0  0
  -91.9538   33.3505   -3.9551 C   0  0  0  0  0  0  0  0  0  0  0  0
  -91.6101   34.5876   -4.4359 C   0  0  0  0  0  0  0  0  0  0  0  0
  -90.4975   35.2827   -4.0102 C   0  0  0  0  0  0  0  0  0  0  0  0
  -89.7378   34.6462   -3.0540 C   0  0  0  0  0  0  0  0  0  0  0  0
  -90.0625   33.4055   -2.5565 C   0  0  0  0  0  0  0  0  0  0  0  0
 38 39  1  0  0  0
 39 40  1  0  0  0
 39  1  1  0  0  0
  1  2  1  0  0  0
  2  3  1  0  0  0
  3  4  2  0  0  0
  3  5  1  0  0  0
  5 41  1  0  0  0
 41 42  1  0  0  0
 42 43  2  0  0  0
 43 44  1  0  0  0
 44 45  2  0  0  0
 45 46  1  0  0  0
 46 47  2  0  0  0
  5  6  1  0  0  0
  6  7  1  0  0  0
  7  8  2  0  0  0
  7  9  1  0  0  0
  9 48  1  0  0  0
 48 49  1  0  0  0
 49 50  2  0  0  0
 50 51  1  0  0  0
 51 52  2  0  0  0
 52 53  1  0  0  0
 53 54  2  0  0  0
  9 10  1  0  0  0
 10 11  1  0  0  0
 11 12  2  0  0  0
 11 13  1  0  0  0
 13 55  1  0  0  0
 55 56  1  0  0  0
 56 57  1  0  0  0
 57 58  1  0  0  0
 57 59  2  0  0  0
 13 14  1  0  0  0
 14 15  1  0  0  0
 15 16  2  0  0  0
 15 17  1  0  0  0
 17 18  1  0  0  0
 18 19  1  0  0  0
 19 20  1  0  0  0
 20 21  1  0  0  0
 21 22  1  0  0  0
 22 23  2  0  0  0
 22 24  1  0  0  0
 24 62  1  0  0  0
 62 63  1  0  0  0
 63 64  2  0  0  0
 64 65  1  0  0  0
 65 66  2  0  0  0
 66 67  1  0  0  0
 67 68  2  0  0  0
 24 25  1  0  0  0
 25 26  1  0  0  0
 26 27  2  0  0  0
 26 28  1  0  0  0
 28 69  1  0  0  0
 69 70  1  0  0  0
 70 71  2  0  0  0
 71 72  1  0  0  0
 72 73  2  0  0  0
 73 74  1  0  0  0
 74 75  2  0  0  0
 28 29  1  0  0  0
 29 30  1  0  0  0
 30 31  2  0  0  0
 30  1  1  0  0  0
 47 42  1  0  0  0
 54 49  1  0  0  0
 21 17  1  0  0  0
 68 63  1  0  0  0
 75 70  1  0  0  0
  2 32  1  0  0  0
  6 33  1  0  0  0
 10 34  1  0  0  0
 58 60  1  0  0  0
 58 61  1  0  0  0
 14 35  1  0  0  0
 25 36  1  0  0  0
 29 37  1  0  0  0
M  END
> <minimizedAffinity>
4.84827

> <CNNscore>
0.3352347612

> <CNNaffinity>
7.1743164062

> <CNN_VS>
2.4050803185

> <CNNaffinity_variance>
1.0501831770

$$$$
[H]c1c([H])c([H])c(C([H])([H])[C@@]2([H])C(=O)N([H])[C@@]([H])(C([H])([H])c3c([H])c([H])c([H])c([H])c3[H])C(=O)N([H])[C@@]([H])(C([H])(C([H])([H])[H])C([H])([H])[H])C(=O)N([H])[C@@]([H])(C([H])([H])c3c([H])c([H])c([H])c([H])c3[H])C(=O)N([H])[C@@]([H])(C([H])([H])c3c([H])c([H])c([H])c([H])c3[H])C(=O)N3C([H])([H])C([H])([H])C([H])([H])[C@@]3([H])C(=O)N([H])[C@@]([H])(C([H])([H])C([H])([H])C(=O)N([H])[H])C(=O)N2[H])c([H])c1[H]


 75 80  0  0  0  0  0  0  0  0999 V2000
  -93.2954   30.4190   -2.6572 C   0  0  0  0  0  0  0  0  0  0  0  0
  -93.5127   29.2432   -1.9160 N   0  0  0  0  0  0  0  0  0  0  0  0
  -94.2412   28.0765   -2.2130 C   0  0  0  0  0  0  0  0  0  0  0  0
  -95.2255   27.7409   -1.4270 O   0  0  0  0  0  0  0  0  0  0  0  0
  -94.0519   27.1297   -3.3234 C   0  0  0  0  0  0  0  0  0  0  0  0
  -93.9754   25.8037   -2.6968 N   0  0  0  0  0  0  0  0  0  0  0  0
  -93.1252   24.7522   -3.0374 C   0  0  0  0  0  0  0  0  0  0  0  0
  -93.6553   23.6138   -3.3133 O   0  0  0  0  0  0  0  0  0  0  0  0
  -91.6462   24.8017   -3.1142 C   0  0  0  0  0  0  0  0  0  0  0  0
  -91.0588   23.6753   -2.4072 N   0  0  0  0  0  0  0  0  0  0  0  0
  -90.5144   23.6230   -1.1292 C   0  0  0  0  0  0  0  0  0  0  0  0
  -89.2995   23.1805   -1.0548 O   0  0  0  0  0  0  0  0  0  0  0  0
  -91.1333   24.0013    0.1557 C   0  0  0  0  0  0  0  0  0  0  0  0
  -91.4789   25.3803    0.2989 N   0  0  0  0  0  0  0  0  0  0  0  0
  -91.1813   26.1192    1.4768 C   0  0  0  0  0  0  0  0  0  0  0  0
  -91.9016   27.1261    1.8069 O   0  0  0  0  0  0  0  0  0  0  0  0
  -90.0656   25.8250    2.4058 C   0  0  0  0  0  0  0  0  0  0  0  0
  -90.6804   25.0528    3.5635 C   0  0  0  0  0  0  0  0  0  0  0  0
  -90.6021   26.0423    4.7116 C   0  0  0  0  0  0  0  0  0  0  0  0
  -89.3094   26.7328    4.3986 C   0  0  0  0  0  0  0  0  0  0  0  0
  -89.4352   26.9883    2.9500 N   0  0  0  0  0  0  0  0  0  0  0  0
  -89.0127   28.1386    2.2386 C   0  0  0  0  0  0  0  0  0  0  0  0
  -88.8583   29.2094    2.9305 O   0  0  0  0  0  0  0  0  0  0  0  0
  -88.7406   28.2038    0.7825 C   0  0  0  0  0  0  0  0  0  0  0  0
  -88.6265   29.5842    0.3940 N   0  0  0  0  0  0  0  0  0  0  0  0
  -89.3973   30.3223   -0.4969 C   0  0  0  0  0  0  0  0  0  0  0  0
  -89.7467   31.4947   -0.1266 O   0  0  0  0  0  0  0  0  0  0  0  0
  -89.8425   29.8402   -1.8547 C   0  0  0  0  0  0  0  0  0  0  0  0
  -90.7228   30.8362   -2.4261 N   0  0  0  0  0  0  0  0  0  0  0  0
  -91.9304   30.7199   -3.1220 C   0  0  0  0  0  0  0  0  0  0  0  0
  -91.8807   30.9087   -4.4160 O   0  0  0  0  0  0  0  0  0  0  0  0
  -93.0516   29.2316   -0.9453 H   0  0  0  0  0  0  0  0  0  0  0  0
  -94.6740   25.6642   -1.9025 H   0  0  0  0  0  0  0  0  0  0  0  0
  -91.0689   22.7738   -2.9862 H   0  0  0  0  0  0  0  0  0  0  0  0
  -91.9764   25.9693   -0.4279 H   0  0  0  0  0  0  0  0  0  0  0  0
  -87.8272   30.1099    0.8689 H   0  0  0  0  0  0  0  0  0  0  0  0
  -90.3236   31.8335   -2.2818 H   0  0  0  0  0  0  0  0  0  0  0  0
  -94.1010   32.8020   -2.9487 C   0  0  0  0  0  0  0  0  0  0  0  0
  -93.9026   31.6636   -1.9945 C   0  0  0  0  0  0  0  0  0  0  0  0
  -95.2218   31.3870   -1.3466 C   0  0  0  0  0  0  0  0  0  0  0  0
  -95.2210   27.0059   -4.2738 C   0  0  0  0  0  0  0  0  0  0  0  0
  -95.2239   27.8670   -5.4336 C   0  0  0  0  0  0  0  0  0  0  0  0
  -95.2197   29.2393   -5.3380 C   0  0  0  0  0  0  0  0  0  0  0  0
  -95.2166   30.0450   -6.4630 C   0  0  0  0  0  0  0  0  0  0  0  0
  -95.2179   29.4559   -7.7246 C   0  0  0  0  0  0  0  0  0  0  0  0
  -95.2224   28.0857   -7.8395 C   0  0  0  0  0  0  0  0  0  0  0  0
  -95.2256   27.3124   -6.6981 C   0  0  0  0  0  0  0  0  0  0  0  0
  -91.2216   24.9003   -4.5530 C   0  0  0  0  0  0  0  0  0  0  0  0
  -91.5300   26.1364   -5.2616 C   0  0  0  0  0  0  0  0  0  0  0  0
  -91.9687   26.0620   -6.5673 C   0  0  0  0  0  0  0  0  0  0  0  0
  -92.2619   27.1865   -7.3055 C   0  0  0  0  0  0  0  0  0  0  0  0
  -92.1180   28.4334   -6.7381 C   0  0  0  0  0  0  0  0  0  0  0  0
  -91.6819   28.5196   -5.4379 C   0  0  0  0  0  0  0  0  0  0  0  0
  -91.3935   27.3920   -4.7136 C   0  0  0  0  0  0  0  0  0  0  0  0
  -92.3896   23.1827    0.4723 C   0  0  0  0  0  0  0  0  0  0  0  0
  -92.2458   21.7955   -0.0795 C   0  0  0  0  0  0  0  0  0  0  0  0
  -91.5126   20.9260    0.8586 C   0  0  0  0  0  0  0  0  0  0  0  0
  -91.1737   21.2763    2.1893 N   0  0  0  0  0  0  0  0  0  0  0  0
  -91.1537   19.7811    0.4603 O   0  0  0  0  0  0  0  0  0  0  0  0
  -90.2049   21.0417    2.5149 H   0  0  0  0  0  0  0  0  0  0  0  0
  -91.7980   21.7455    2.8724 H   0  0  0  0  0  0  0  0  0  0  0  0
  -87.5258   27.3818    0.4531 C   0  0  0  0  0  0  0  0  0  0  0  0
  -86.2338   27.9606    0.9063 C   0  0  0  0  0  0  0  0  0  0  0  0
  -85.6760   29.0697    0.3150 C   0  0  0  0  0  0  0  0  0  0  0  0
  -84.4820   29.6207    0.7359 C   0  0  0  0  0  0  0  0  0  0  0  0
  -83.8252   29.0336    1.7919 C   0  0  0  0  0  0  0  0  0  0  0  0
  -84.3756   27.9245    2.3894 C   0  0  0  0  0  0  0  0  0  0  0  0
  -85.5640   27.3856    1.9614 C   0  0  0  0  0  0  0  0  0  0  0  0
  -88.6073   29.7829   -2.7755 C   0  0  0  0  0  0  0  0  0  0  0  0
  -88.1155   31.1385   -3.1538 C   0  0  0  0  0  0  0  0  0  0  0  0
  -88.5061   31.6503   -4.3777 C   0  0  0  0  0  0  0  0  0  0  0  0
  -88.0864   32.8941   -4.7730 C   0  0  0  0  0  0  0  0  0  0  0  0
  -87.2708   33.6975   -4.0038 C   0  0  0  0  0  0  0  0  0  0  0  0
  -86.8964   33.1640   -2.7906 C   0  0  0  0  0  0  0  0  0  0  0  0
  -87.3048   31.9188   -2.3724 C   0  0  0  0  0  0  0  0  0  0  0  0
 38 39  1  0  0  0
 39 40  1  0  0  0
 39  1  1  0  0  0
  1  2  1  0  0  0
  2  3  1  0  0  0
  3  4  2  0  0  0
  3  5  1  0  0  0
  5 41  1  0  0  0
 41 42  1  0  0  0
 42 43  2  0  0  0
 43 44  1  0  0  0
 44 45  2  0  0  0
 45 46  1  0  0  0
 46 47  2  0  0  0
  5  6  1  0  0  0
  6  7  1  0  0  0
  7  8  2  0  0  0
  7  9  1  0  0  0
  9 48  1  0  0  0
 48 49  1  0  0  0
 49 50  2  0  0  0
 50 51  1  0  0  0
 51 52  2  0  0  0
 52 53  1  0  0  0
 53 54  2  0  0  0
  9 10  1  0  0  0
 10 11  1  0  0  0
 11 12  2  0  0  0
 11 13  1  0  0  0
 13 55  1  0  0  0
 55 56  1  0  0  0
 56 57  1  0  0  0
 57 58  1  0  0  0
 57 59  2  0  0  0
 13 14  1  0  0  0
 14 15  1  0  0  0
 15 16  2  0  0  0
 15 17  1  0  0  0
 17 18  1  0  0  0
 18 19  1  0  0  0
 19 20  1  0  0  0
 20 21  1  0  0  0
 21 22  1  0  0  0
 22 23  2  0  0  0
 22 24  1  0  0  0
 24 62  1  0  0  0
 62 63  1  0  0  0
 63 64  2  0  0  0
 64 65  1  0  0  0
 65 66  2  0  0  0
 66 67  1  0  0  0
 67 68  2  0  0  0
 24 25  1  0  0  0
 25 26  1  0  0  0
 26 27  2  0  0  0
 26 28  1  0  0  0
 28 69  1  0  0  0
 69 70  1  0  0  0
 70 71  2  0  0  0
 71 72  1  0  0  0
 72 73  2  0  0  0
 73 74  1  0  0  0
 74 75  2  0  0  0
 28 29  1  0  0  0
 29 30  1  0  0  0
 30 31  2  0  0  0
 30  1  1  0  0  0
 47 42  1  0  0  0
 54 49  1  0  0  0
 21 17  1  0  0  0
 68 63  1  0  0  0
 75 70  1  0  0  0
  2 32  1  0  0  0
  6 33  1  0  0  0
 10 34  1  0  0  0
 58 60  1  0  0  0
 58 61  1  0  0  0
 14 35  1  0  0  0
 25 36  1  0  0  0
 29 37  1  0  0  0
M  END
> <minimizedAffinity>
-0.03037

> <CNNscore>
0.3161815107

> <CNNaffinity>
7.1853685379

> <CNN_VS>
2.2718806267

> <CNNaffinity_variance>
1.3481771946

$$$$
[H]c1c([H])c([H])c(C([H])([H])[C@@]2([H])C(=O)N([H])[C@@]([H])(C([H])([H])c3c([H])c([H])c([H])c([H])c3[H])C(=O)N([H])[C@@]([H])(C([H])(C([H])([H])[H])C([H])([H])[H])C(=O)N([H])[C@@]([H])(C([H])([H])c3c([H])c([H])c([H])c([H])c3[H])C(=O)N([H])[C@@]([H])(C([H])([H])c3c([H])c([H])c([H])c([H])c3[H])C(=O)N3C([H])([H])C([H])([H])C([H])([H])[C@@]3([H])C(=O)N([H])[C@@]([H])(C([H])([H])C([H])([H])C(=O)N([H])[H])C(=O)N2[H])c([H])c1[H]


 75 80  0  0  0  0  0  0  0  0999 V2000
  -89.3176   28.6917    1.6722 C   0  0  0  0  0  0  0  0  0  0  0  0
  -89.3206   29.8986    0.9493 N   0  0  0  0  0  0  0  0  0  0  0  0
  -88.3127   30.8561    0.7318 C   0  0  0  0  0  0  0  0  0  0  0  0
  -88.5216   32.0802    1.1285 O   0  0  0  0  0  0  0  0  0  0  0  0
  -86.9992   30.6822    0.0915 C   0  0  0  0  0  0  0  0  0  0  0  0
  -86.9224   31.7317   -0.9328 N   0  0  0  0  0  0  0  0  0  0  0  0
  -86.3953   31.6246   -2.2193 C   0  0  0  0  0  0  0  0  0  0  0  0
  -85.4765   32.4547   -2.5652 O   0  0  0  0  0  0  0  0  0  0  0  0
  -86.7884   30.6412   -3.2558 C   0  0  0  0  0  0  0  0  0  0  0  0
  -87.0220   31.3043   -4.5283 N   0  0  0  0  0  0  0  0  0  0  0  0
  -88.2221   31.6871   -5.1162 C   0  0  0  0  0  0  0  0  0  0  0  0
  -88.4331   31.2300   -6.3094 O   0  0  0  0  0  0  0  0  0  0  0  0
  -89.2885   32.5459   -4.5662 C   0  0  0  0  0  0  0  0  0  0  0  0
  -89.9526   32.0474   -3.4035 N   0  0  0  0  0  0  0  0  0  0  0  0
  -91.3677   32.0760   -3.2666 C   0  0  0  0  0  0  0  0  0  0  0  0
  -91.9033   32.1228   -2.1036 O   0  0  0  0  0  0  0  0  0  0  0  0
  -92.3312   32.0562   -4.3916 C   0  0  0  0  0  0  0  0  0  0  0  0
  -92.7537   33.5022   -4.6034 C   0  0  0  0  0  0  0  0  0  0  0  0
  -94.1971   33.5068   -4.1343 C   0  0  0  0  0  0  0  0  0  0  0  0
  -94.6391   32.1443   -4.5746 C   0  0  0  0  0  0  0  0  0  0  0  0
  -93.5148   31.2945   -4.1348 N   0  0  0  0  0  0  0  0  0  0  0  0
  -93.5850   29.9915   -3.5824 C   0  0  0  0  0  0  0  0  0  0  0  0
  -94.7086   29.6565   -3.0586 O   0  0  0  0  0  0  0  0  0  0  0  0
  -92.4820   29.0008   -3.5601 C   0  0  0  0  0  0  0  0  0  0  0  0
  -92.8386   27.9309   -2.6671 N   0  0  0  0  0  0  0  0  0  0  0  0
  -92.2161   27.5041   -1.4996 C   0  0  0  0  0  0  0  0  0  0  0  0
  -92.9715   27.2487   -0.5008 O   0  0  0  0  0  0  0  0  0  0  0  0
  -90.7281   27.3227   -1.3341 C   0  0  0  0  0  0  0  0  0  0  0  0
  -90.4604   26.9884    0.0479 N   0  0  0  0  0  0  0  0  0  0  0  0
  -89.4718   27.4257    0.9353 C   0  0  0  0  0  0  0  0  0  0  0  0
  -88.4966   26.5890    1.1835 O   0  0  0  0  0  0  0  0  0  0  0  0
  -90.2593   30.1439    0.4871 H   0  0  0  0  0  0  0  0  0  0  0  0
  -87.3140   32.6715   -0.6136 H   0  0  0  0  0  0  0  0  0  0  0  0
  -86.1141   31.5141   -5.0573 H   0  0  0  0  0  0  0  0  0  0  0  0
  -89.4771   31.6257   -2.5557 H   0  0  0  0  0  0  0  0  0  0  0  0
  -93.7152   27.3923   -2.9542 H   0  0  0  0  0  0  0  0  0  0  0  0
  -91.1651   26.2488    0.4102 H   0  0  0  0  0  0  0  0  0  0  0  0
  -91.5857   28.0418    2.5920 C   0  0  0  0  0  0  0  0  0  0  0  0
  -90.2749   28.7120    2.8722 C   0  0  0  0  0  0  0  0  0  0  0  0
  -89.6913   28.0642    4.0873 C   0  0  0  0  0  0  0  0  0  0  0  0
  -85.8063   30.9627    0.9768 C   0  0  0  0  0  0  0  0  0  0  0  0
  -85.0757   29.8235    1.4818 C   0  0  0  0  0  0  0  0  0  0  0  0
  -85.6818   28.6227    1.7701 C   0  0  0  0  0  0  0  0  0  0  0  0
  -84.9609   27.5424    2.2476 C   0  0  0  0  0  0  0  0  0  0  0  0
  -83.5881   27.6699    2.4424 C   0  0  0  0  0  0  0  0  0  0  0  0
  -82.9653   28.8628    2.1599 C   0  0  0  0  0  0  0  0  0  0  0  0
  -83.7134   29.9194    1.6856 C   0  0  0  0  0  0  0  0  0  0  0  0
  -85.7602   29.5465   -3.3242 C   0  0  0  0  0  0  0  0  0  0  0  0
  -86.0402   28.3149   -2.5962 C   0  0  0  0  0  0  0  0  0  0  0  0
  -85.2637   27.2030   -2.8483 C   0  0  0  0  0  0  0  0  0  0  0  0
  -85.4800   26.0008   -2.2132 C   0  0  0  0  0  0  0  0  0  0  0  0
  -86.4999   25.8869   -1.2943 C   0  0  0  0  0  0  0  0  0  0  0  0
  -87.2796   26.9881   -1.0351 C   0  0  0  0  0  0  0  0  0  0  0  0
  -87.0536   28.1796   -1.6742 C   0  0  0  0  0  0  0  0  0  0  0  0
  -88.8001   33.9612   -4.2390 C   0  0  0  0  0  0  0  0  0  0  0  0
  -88.9116   34.8321   -5.4550 C   0  0  0  0  0  0  0  0  0  0  0  0
  -89.4545   36.1583   -5.1085 C   0  0  0  0  0  0  0  0  0  0  0  0
  -89.1222   37.3663   -5.7707 N   0  0  0  0  0  0  0  0  0  0  0  0
  -90.2779   36.2387   -4.1527 O   0  0  0  0  0  0  0  0  0  0  0  0
  -88.9351   38.2060   -5.1712 H   0  0  0  0  0  0  0  0  0  0  0  0
  -89.0463   37.4960   -6.7974 H   0  0  0  0  0  0  0  0  0  0  0  0
  -92.1788   28.5431   -4.9595 C   0  0  0  0  0  0  0  0  0  0  0  0
  -92.8045   27.2519   -5.3476 C   0  0  0  0  0  0  0  0  0  0  0  0
  -92.3899   26.5328   -6.4439 C   0  0  0  0  0  0  0  0  0  0  0  0
  -92.9577   25.3274   -6.8060 C   0  0  0  0  0  0  0  0  0  0  0  0
  -93.9809   24.8270   -6.0355 C   0  0  0  0  0  0  0  0  0  0  0  0
  -94.4019   25.5391   -4.9374 C   0  0  0  0  0  0  0  0  0  0  0  0
  -93.8290   26.7371   -4.5876 C   0  0  0  0  0  0  0  0  0  0  0  0
  -90.2963   26.0958   -2.1619 C   0  0  0  0  0  0  0  0  0  0  0  0
  -91.0343   24.8596   -1.7753 C   0  0  0  0  0  0  0  0  0  0  0  0
  -92.1230   24.4891   -2.5435 C   0  0  0  0  0  0  0  0  0  0  0  0
  -92.8344   23.3585   -2.2350 C   0  0  0  0  0  0  0  0  0  0  0  0
  -92.5258   22.5368   -1.1710 C   0  0  0  0  0  0  0  0  0  0  0  0
  -91.4381   22.9288   -0.4227 C   0  0  0  0  0  0  0  0  0  0  0  0
  -90.7090   24.0586   -0.7127 C   0  0  0  0  0  0  0  0  0  0  0  0
 38 39  1  0  0  0
 39 40  1  0  0  0
 39  1  1  0  0  0
  1  2  1  0  0  0
  2  3  1  0  0  0
  3  4  2  0  0  0
  3  5  1  0  0  0
  5 41  1  0  0  0
 41 42  1  0  0  0
 42 43  2  0  0  0
 43 44  1  0  0  0
 44 45  2  0  0  0
 45 46  1  0  0  0
 46 47  2  0  0  0
  5  6  1  0  0  0
  6  7  1  0  0  0
  7  8  2  0  0  0
  7  9  1  0  0  0
  9 48  1  0  0  0
 48 49  1  0  0  0
 49 50  2  0  0  0
 50 51  1  0  0  0
 51 52  2  0  0  0
 52 53  1  0  0  0
 53 54  2  0  0  0
  9 10  1  0  0  0
 10 11  1  0  0  0
 11 12  2  0  0  0
 11 13  1  0  0  0
 13 55  1  0  0  0
 55 56  1  0  0  0
 56 57  1  0  0  0
 57 58  1  0  0  0
 57 59  2  0  0  0
 13 14  1  0  0  0
 14 15  1  0  0  0
 15 16  2  0  0  0
 15 17  1  0  0  0
 17 18  1  0  0  0
 18 19  1  0  0  0
 19 20  1  0  0  0
 20 21  1  0  0  0
 21 22  1  0  0  0
 22 23  2  0  0  0
 22 24  1  0  0  0
 24 62  1  0  0  0
 62 63  1  0  0  0
 63 64  2  0  0  0
 64 65  1  0  0  0
 65 66  2  0  0  0
 66 67  1  0  0  0
 67 68  2  0  0  0
 24 25  1  0  0  0
 25 26  1  0  0  0
 26 27  2  0  0  0
 26 28  1  0  0  0
 28 69  1  0  0  0
 69 70  1  0  0  0
 70 71  2  0  0  0
 71 72  1  0  0  0
 72 73  2  0  0  0
 73 74  1  0  0  0
 74 75  2  0  0  0
 28 29  1  0  0  0
 29 30  1  0  0  0
 30 31  2  0  0  0
 30  1  1  0  0  0
 47 42  1  0  0  0
 54 49  1  0  0  0
 21 17  1  0  0  0
 68 63  1  0  0  0
 75 70  1  0  0  0
  2 32  1  0  0  0
  6 33  1  0  0  0
 10 34  1  0  0  0
 58 60  1  0  0  0
 58 61  1  0  0  0
 14 35  1  0  0  0
 25 36  1  0  0  0
 29 37  1  0  0  0
M  END
> <minimizedAffinity>
14.86558

> <CNNscore>
0.2970781326

> <CNNaffinity>
7.1897916794

> <CNN_VS>
2.1359298229

> <CNNaffinity_variance>
1.1442000866

$$$$
[H]OC(=O)[C@]1([H])N([H])[C@]([H])(C([H])([H])c2c([H])c([H])c([H])c([N+](=O)[O-])c2[H])C1([H])[H]


 19 20  0  0  0  0  0  0  0  0999 V2000
  -86.7344   32.8414   -0.9543 C   0  0  0  0  0  0  0  0  0  0  0  0
  -85.4083   32.3899   -0.4790 C   0  0  0  0  0  0  0  0  0  0  0  0
  -84.2781   33.1463   -0.7053 C   0  0  0  0  0  0  0  0  0  0  0  0
  -83.0476   32.7069   -0.2528 C   0  0  0  0  0  0  0  0  0  0  0  0
  -82.8964   31.5237    0.4277 C   0  0  0  0  0  0  0  0  0  0  0  0
  -84.0261   30.7513    0.6630 C   0  0  0  0  0  0  0  0  0  0  0  0
  -85.2508   31.1905    0.2115 C   0  0  0  0  0  0  0  0  0  0  0  0
  -83.9216   29.5209    1.3616 N   0  0  0  0  0  0  0  0  0  0  0  0
  -82.8019   29.2227    2.0667 O   0  0  0  0  0  0  0  0  0  0  0  0
  -84.8750   28.7086    1.3224 O   0  0  0  0  0  0  0  0  0  0  0  0
  -86.5568   33.8233   -2.0843 C   0  0  0  0  0  0  0  0  0  0  0  0
  -86.5671   33.2269   -3.4087 N   0  0  0  0  0  0  0  0  0  0  0  0
  -87.1851   34.4523   -3.8821 C   0  0  0  0  0  0  0  0  0  0  0  0
  -87.8095   34.5749   -2.4851 C   0  0  0  0  0  0  0  0  0  0  0  0
  -87.2664   32.4408   -3.4845 H   0  0  0  0  0  0  0  0  0  0  0  0
  -88.1422   34.3000   -4.9726 C   0  0  0  0  0  0  0  0  0  0  0  0
  -88.3453   35.3240   -5.8687 O   0  0  0  0  0  0  0  0  0  0  0  0
  -88.7890   33.2371   -5.1055 O   0  0  0  0  0  0  0  0  0  0  0  0
  -87.6011   35.7782   -6.3988 H   0  0  0  0  0  0  0  0  0  0  0  0
  1  2  1  0  0  0
  2  3  2  0  0  0
  3  4  1  0  0  0
  4  5  2  0  0  0
  5  6  1  0  0  0
  6  8  1  0  0  0
  8  9  1  0  0  0
  8 10  2  0  0  0
  6  7  2  0  0  0
  1 11  1  0  0  0
 11 12  1  0  0  0
 12 13  1  0  0  0
 13 16  1  0  0  0
 16 17  1  0  0  0
 16 18  2  0  0  0
 13 14  1  0  0  0
  7  2  1  0  0  0
 14 11  1  0  0  0
 12 15  1  0  0  0
 17 19  1  0  0  0
M  CHG 1   8   1
M  CHG 1   9  -1
M  END
> <minimizedAffinity>
-6.71985

> <CNNscore>
0.7880833149

> <CNNaffinity>
4.9891748428

> <CNN_VS>
3.9318854809

> <CNNaffinity_variance>
0.0619213767

$$$$
[H]OC(=O)[C@]1([H])N([H])[C@]([H])(C([H])([H])c2c([H])c([H])c([H])c([N+](=O)[O-])c2[H])C1([H])[H]


 19 20  0  0  0  0  0  0  0  0999 V2000
  -86.7468   31.9661   -0.4664 C   0  0  0  0  0  0  0  0  0  0  0  0
  -85.3784   31.7049    0.0311 C   0  0  0  0  0  0  0  0  0  0  0  0
  -84.3243   32.5154   -0.3328 C   0  0  0  0  0  0  0  0  0  0  0  0
  -83.0525   32.2546    0.1430 C   0  0  0  0  0  0  0  0  0  0  0  0
  -82.7853   31.2002    0.9813 C   0  0  0  0  0  0  0  0  0  0  0  0
  -83.8373   30.3752    1.3565 C   0  0  0  0  0  0  0  0  0  0  0  0
  -85.1033   30.6365    0.8815 C   0  0  0  0  0  0  0  0  0  0  0  0
  -83.6121   29.2729    2.2208 N   0  0  0  0  0  0  0  0  0  0  0  0
  -84.5971   28.8285    3.0407 O   0  0  0  0  0  0  0  0  0  0  0  0
  -82.4921   28.7107    2.2214 O   0  0  0  0  0  0  0  0  0  0  0  0
  -87.5562   30.6958   -0.4043 C   0  0  0  0  0  0  0  0  0  0  0  0
  -88.8883   30.8011   -0.9737 N   0  0  0  0  0  0  0  0  0  0  0  0
  -88.7527   29.4130   -1.3767 C   0  0  0  0  0  0  0  0  0  0  0  0
  -87.2454   29.6825   -1.4866 C   0  0  0  0  0  0  0  0  0  0  0  0
  -88.9042   31.4070   -1.8371 H   0  0  0  0  0  0  0  0  0  0  0  0
  -89.4056   29.0493   -2.6295 C   0  0  0  0  0  0  0  0  0  0  0  0
  -89.6994   27.7338   -2.9052 O   0  0  0  0  0  0  0  0  0  0  0  0
  -89.7060   29.9289   -3.4673 O   0  0  0  0  0  0  0  0  0  0  0  0
  -90.2349   27.1240   -2.2867 H   0  0  0  0  0  0  0  0  0  0  0  0
  1  2  1  0  0  0
  2  3  2  0  0  0
  3  4  1  0  0  0
  4  5  2  0  0  0
  5  6  1  0  0  0
  6  8  1  0  0  0
  8  9  1  0  0  0
  8 10  2  0  0  0
  6  7  2  0  0  0
  1 11  1  0  0  0
 11 12  1  0  0  0
 12 13  1  0  0  0
 13 16  1  0  0  0
 16 17  1  0  0  0
 16 18  2  0  0  0
 13 14  1  0  0  0
  7  2  1  0  0  0
 14 11  1  0  0  0
 12 15  1  0  0  0
 17 19  1  0  0  0
M  CHG 1   8   1
M  CHG 1   9  -1
M  END
> <minimizedAffinity>
-6.87026

> <CNNscore>
0.6708458662

> <CNNaffinity>
5.2491703033

> <CNN_VS>
3.5213842392

> <CNNaffinity_variance>
0.2624014020

$$$$
[H]OC(=O)[C@]1([H])N([H])[C@]([H])(C([H])([H])c2c([H])c([H])c([H])c([N+](=O)[O-])c2[H])C1([H])[H]


 19 20  0  0  0  0  0  0  0  0999 V2000
  -86.6395   30.6885   -0.0134 C   0  0  0  0  0  0  0  0  0  0  0  0
  -85.3173   30.4061    0.5869 C   0  0  0  0  0  0  0  0  0  0  0  0
  -84.3051   31.3412    0.5458 C   0  0  0  0  0  0  0  0  0  0  0  0
  -83.0761   31.0581    1.1127 C   0  0  0  0  0  0  0  0  0  0  0  0
  -82.8117   29.8600    1.7295 C   0  0  0  0  0  0  0  0  0  0  0  0
  -83.8218   28.9085    1.7787 C   0  0  0  0  0  0  0  0  0  0  0  0
  -85.0451   29.1922    1.2133 C   0  0  0  0  0  0  0  0  0  0  0  0
  -83.5976   27.6553    2.4048 N   0  0  0  0  0  0  0  0  0  0  0  0
  -82.3525   27.3014    2.8102 O   0  0  0  0  0  0  0  0  0  0  0  0
  -84.5619   26.8747    2.5813 O   0  0  0  0  0  0  0  0  0  0  0  0
  -87.4040   29.3995   -0.1766 C   0  0  0  0  0  0  0  0  0  0  0  0
  -88.7720   29.5638   -0.6363 N   0  0  0  0  0  0  0  0  0  0  0  0
  -88.6196   28.2980   -1.3306 C   0  0  0  0  0  0  0  0  0  0  0  0
  -87.1312   28.6495   -1.4642 C   0  0  0  0  0  0  0  0  0  0  0  0
  -88.8610   30.3356   -1.3499 H   0  0  0  0  0  0  0  0  0  0  0  0
  -89.3389   28.1766   -2.5940 C   0  0  0  0  0  0  0  0  0  0  0  0
  -89.4504   26.9550   -3.2170 O   0  0  0  0  0  0  0  0  0  0  0  0
  -89.8625   29.1812   -3.1252 O   0  0  0  0  0  0  0  0  0  0  0  0
  -89.8134   26.1135   -2.7684 H   0  0  0  0  0  0  0  0  0  0  0  0
  1  2  1  0  0  0
  2  3  2  0  0  0
  3  4  1  0  0  0
  4  5  2  0  0  0
  5  6  1  0  0  0
  6  8  1  0  0  0
  8  9  1  0  0  0
  8 10  2  0  0  0
  6  7  2  0  0  0
  1 11  1  0  0  0
 11 12  1  0  0  0
 12 13  1  0  0  0
 13 16  1  0  0  0
 16 17  1  0  0  0
 16 18  2  0  0  0
 13 14  1  0  0  0
  7  2  1  0  0  0
 14 11  1  0  0  0
 12 15  1  0  0  0
 17 19  1  0  0  0
M  CHG 1   8   1
M  CHG 1   9  -1
M  END
> <minimizedAffinity>
-7.48620

> <CNNscore>
0.6519405842

> <CNNaffinity>
5.2973160744

> <CNN_VS>
3.4535353184

> <CNNaffinity_variance>
0.5823513269

$$$$
[H]OC(=O)[C@]1([H])N([H])[C@]([H])(C([H])([H])c2c([H])c([H])c([H])c([N+](=O)[O-])c2[H])C1([H])[H]


 19 20  0  0  0  0  0  0  0  0999 V2000
  -85.8124   33.2284   -0.1992 C   0  0  0  0  0  0  0  0  0  0  0  0
  -84.7812   32.2874    0.2903 C   0  0  0  0  0  0  0  0  0  0  0  0
  -83.4856   32.3486   -0.1769 C   0  0  0  0  0  0  0  0  0  0  0  0
  -82.5362   31.4599    0.2931 C   0  0  0  0  0  0  0  0  0  0  0  0
  -82.8320   30.4966    1.2261 C   0  0  0  0  0  0  0  0  0  0  0  0
  -84.1330   30.4230    1.7059 C   0  0  0  0  0  0  0  0  0  0  0  0
  -85.0772   31.3089    1.2365 C   0  0  0  0  0  0  0  0  0  0  0  0
  -84.4881   29.4451    2.6705 N   0  0  0  0  0  0  0  0  0  0  0  0
  -83.8533   28.2468    2.7017 O   0  0  0  0  0  0  0  0  0  0  0  0
  -85.3960   29.6975    3.4966 O   0  0  0  0  0  0  0  0  0  0  0  0
  -86.4424   32.6774   -1.4530 C   0  0  0  0  0  0  0  0  0  0  0  0
  -87.5343   31.7482   -1.2211 N   0  0  0  0  0  0  0  0  0  0  0  0
  -88.1365   32.2562   -2.4404 C   0  0  0  0  0  0  0  0  0  0  0  0
  -87.4493   33.5912   -2.1209 C   0  0  0  0  0  0  0  0  0  0  0  0
  -88.1320   32.0348   -0.4004 H   0  0  0  0  0  0  0  0  0  0  0  0
  -89.5945   32.3030   -2.4563 C   0  0  0  0  0  0  0  0  0  0  0  0
  -90.2541   33.1721   -3.2945 O   0  0  0  0  0  0  0  0  0  0  0  0
  -90.2617   31.5539   -1.7085 O   0  0  0  0  0  0  0  0  0  0  0  0
  -90.1018   33.2236   -4.3022 H   0  0  0  0  0  0  0  0  0  0  0  0
  1  2  1  0  0  0
  2  3  2  0  0  0
  3  4  1  0  0  0
  4  5  2  0  0  0
  5  6  1  0  0  0
  6  8  1  0  0  0
  8  9  1  0  0  0
  8 10  2  0  0  0
  6  7  2  0  0  0
  1 11  1  0  0  0
 11 12  1  0  0  0
 12 13  1  0  0  0
 13 16  1  0  0  0
 16 17  1  0  0  0
 16 18  2  0  0  0
 13 14  1  0  0  0
  7  2  1  0  0  0
 14 11  1  0  0  0
 12 15  1  0  0  0
 17 19  1  0  0  0
M  CHG 1   8   1
M  CHG 1   9  -1
M  END
> <minimizedAffinity>
-6.81935

> <CNNscore>
0.6316435933

> <CNNaffinity>
4.9488840103

> <CNN_VS>
3.1259307861

> <CNNaffinity_variance>
0.1475446969

$$$$
[H]OC(=O)[C@]1([H])N([H])[C@]([H])(C([H])([H])c2c([H])c([H])c([H])c([N+](=O)[O-])c2[H])C1([H])[H]


 19 20  0  0  0  0  0  0  0  0999 V2000
  -87.4720   32.9663   -1.0765 C   0  0  0  0  0  0  0  0  0  0  0  0
  -86.2341   32.3823   -0.5154 C   0  0  0  0  0  0  0  0  0  0  0  0
  -85.0244   33.0323   -0.6371 C   0  0  0  0  0  0  0  0  0  0  0  0
  -83.8784   32.4698   -0.1057 C   0  0  0  0  0  0  0  0  0  0  0  0
  -83.8907   31.2650    0.5532 C   0  0  0  0  0  0  0  0  0  0  0  0
  -85.1020   30.5988    0.6836 C   0  0  0  0  0  0  0  0  0  0  0  0
  -86.2423   31.1606    0.1535 C   0  0  0  0  0  0  0  0  0  0  0  0
  -85.1663   29.3512    1.3559 N   0  0  0  0  0  0  0  0  0  0  0  0
  -84.1789   28.9762    2.2069 O   0  0  0  0  0  0  0  0  0  0  0  0
  -86.1457   28.5952    1.1569 O   0  0  0  0  0  0  0  0  0  0  0  0
  -87.1604   33.6439   -2.3865 C   0  0  0  0  0  0  0  0  0  0  0  0
  -87.5509   32.8885   -3.5641 N   0  0  0  0  0  0  0  0  0  0  0  0
  -87.8130   34.1615   -4.2110 C   0  0  0  0  0  0  0  0  0  0  0  0
  -88.1565   34.7014   -2.8157 C   0  0  0  0  0  0  0  0  0  0  0  0
  -88.4656   32.3817   -3.4252 H   0  0  0  0  0  0  0  0  0  0  0  0
  -88.9173   34.1733   -5.1643 C   0  0  0  0  0  0  0  0  0  0  0  0
  -89.9090   33.2223   -5.0928 O   0  0  0  0  0  0  0  0  0  0  0  0
  -88.9754   35.0478   -6.0573 O   0  0  0  0  0  0  0  0  0  0  0  0
  -90.4522   33.0224   -4.2525 H   0  0  0  0  0  0  0  0  0  0  0  0
  1  2  1  0  0  0
  2  3  2  0  0  0
  3  4  1  0  0  0
  4  5  2  0  0  0
  5  6  1  0  0  0
  6  8  1  0  0  0
  8  9  1  0  0  0
  8 10  2  0  0  0
  6  7  2  0  0  0
  1 11  1  0  0  0
 11 12  1  0  0  0
 12 13  1  0  0  0
 13 16  1  0  0  0
 16 17  1  0  0  0
 16 18  2  0  0  0
 13 14  1  0  0  0
  7  2  1  0  0  0
 14 11  1  0  0  0
 12 15  1  0  0  0
 17 19  1  0  0  0
M  CHG 1   8   1
M  CHG 1   9  -1
M  END
> <minimizedAffinity>
-5.76951

> <CNNscore>
0.5944231153

> <CNNaffinity>
4.8747057915

> <CNN_VS>
2.8976378441

> <CNNaffinity_variance>
0.0740176141

$$$$
[H]OC(=O)[C@]1([H])N([H])[C@]([H])(C([H])([H])c2c([H])c([H])c([H])c([N+](=O)[O-])c2[H])C1([H])[H]


 19 20  0  0  0  0  0  0  0  0999 V2000
  -86.5621   31.0432    0.0850 C   0  0  0  0  0  0  0  0  0  0  0  0
  -85.2671   30.6134    0.6565 C   0  0  0  0  0  0  0  0  0  0  0  0
  -84.1688   31.4462    0.6310 C   0  0  0  0  0  0  0  0  0  0  0  0
  -82.9670   31.0259    1.1705 C   0  0  0  0  0  0  0  0  0  0  0  0
  -82.8142   29.7876    1.7442 C   0  0  0  0  0  0  0  0  0  0  0  0
  -83.9119   28.9379    1.7772 C   0  0  0  0  0  0  0  0  0  0  0  0
  -85.1080   29.3583    1.2392 C   0  0  0  0  0  0  0  0  0  0  0  0
  -83.8043   27.6484    2.3590 N   0  0  0  0  0  0  0  0  0  0  0  0
  -82.6279   27.2276    2.8872 O   0  0  0  0  0  0  0  0  0  0  0  0
  -84.8078   26.8982    2.3815 O   0  0  0  0  0  0  0  0  0  0  0  0
  -87.4017   29.8309   -0.2277 C   0  0  0  0  0  0  0  0  0  0  0  0
  -88.8207   30.1024   -0.3774 N   0  0  0  0  0  0  0  0  0  0  0  0
  -88.8526   29.0350   -1.3608 C   0  0  0  0  0  0  0  0  0  0  0  0
  -87.3974   29.4040   -1.6812 C   0  0  0  0  0  0  0  0  0  0  0  0
  -88.9999   31.0207   -0.8648 H   0  0  0  0  0  0  0  0  0  0  0  0
  -89.7903   29.2160   -2.4637 C   0  0  0  0  0  0  0  0  0  0  0  0
  -90.1956   30.4779   -2.8329 O   0  0  0  0  0  0  0  0  0  0  0  0
  -90.2364   28.2266   -3.0863 O   0  0  0  0  0  0  0  0  0  0  0  0
  -89.5580   31.2399   -3.0653 H   0  0  0  0  0  0  0  0  0  0  0  0
  1  2  1  0  0  0
  2  3  2  0  0  0
  3  4  1  0  0  0
  4  5  2  0  0  0
  5  6  1  0  0  0
  6  8  1  0  0  0
  8  9  1  0  0  0
  8 10  2  0  0  0
  6  7  2  0  0  0
  1 11  1  0  0  0
 11 12  1  0  0  0
 12 13  1  0  0  0
 13 16  1  0  0  0
 16 17  1  0  0  0
 16 18  2  0  0  0
 13 14  1  0  0  0
  7  2  1  0  0  0
 14 11  1  0  0  0
 12 15  1  0  0  0
 17 19  1  0  0  0
M  CHG 1   8   1
M  CHG 1   9  -1
M  END
> <minimizedAffinity>
-7.05778

> <CNNscore>
0.5376657844

> <CNNaffinity>
5.3088974953

> <CNN_VS>
2.8544125557

> <CNNaffinity_variance>
0.7095600963

$$$$
[H]OC(=O)[C@]1([H])N([H])[C@]([H])(C([H])([H])c2c([H])c([H])c([H])c([N+](=O)[O-])c2[H])C1([H])[H]


 19 20  0  0  0  0  0  0  0  0999 V2000
  -87.1719   32.4611   -0.7917 C   0  0  0  0  0  0  0  0  0  0  0  0
  -85.7706   32.2786   -0.3543 C   0  0  0  0  0  0  0  0  0  0  0  0
  -84.7625   33.0772   -0.8507 C   0  0  0  0  0  0  0  0  0  0  0  0
  -83.4588   32.8908   -0.4292 C   0  0  0  0  0  0  0  0  0  0  0  0
  -83.1145   31.9236    0.4830 C   0  0  0  0  0  0  0  0  0  0  0  0
  -84.1195   31.1116    0.9918 C   0  0  0  0  0  0  0  0  0  0  0  0
  -85.4172   31.2988    0.5706 C   0  0  0  0  0  0  0  0  0  0  0  0
  -83.8141   30.0982    1.9365 N   0  0  0  0  0  0  0  0  0  0  0  0
  -82.6478   29.4105    1.8555 O   0  0  0  0  0  0  0  0  0  0  0  0
  -84.6330   29.8421    2.8498 O   0  0  0  0  0  0  0  0  0  0  0  0
  -87.4023   31.7015   -2.0734 C   0  0  0  0  0  0  0  0  0  0  0  0
  -88.7047   31.0661   -2.1719 N   0  0  0  0  0  0  0  0  0  0  0  0
  -88.6430   31.3146   -3.6009 C   0  0  0  0  0  0  0  0  0  0  0  0
  -87.8008   32.5524   -3.2616 C   0  0  0  0  0  0  0  0  0  0  0  0
  -89.4693   31.6614   -1.7549 H   0  0  0  0  0  0  0  0  0  0  0  0
  -89.9179   31.5974   -4.2514 C   0  0  0  0  0  0  0  0  0  0  0  0
  -90.5616   30.6207   -4.9757 O   0  0  0  0  0  0  0  0  0  0  0  0
  -90.4403   32.7305   -4.1582 O   0  0  0  0  0  0  0  0  0  0  0  0
  -90.7925   29.6956   -4.6123 H   0  0  0  0  0  0  0  0  0  0  0  0
  1  2  1  0  0  0
  2  3  2  0  0  0
  3  4  1  0  0  0
  4  5  2  0  0  0
  5  6  1  0  0  0
  6  8  1  0  0  0
  8  9  1  0  0  0
  8 10  2  0  0  0
  6  7  2  0  0  0
  1 11  1  0  0  0
 11 12  1  0  0  0
 12 13  1  0  0  0
 13 16  1  0  0  0
 16 17  1  0  0  0
 16 18  2  0  0  0
 13 14  1  0  0  0
  7  2  1  0  0  0
 14 11  1  0  0  0
 12 15  1  0  0  0
 17 19  1  0  0  0
M  CHG 1   8   1
M  CHG 1   9  -1
M  END
> <minimizedAffinity>
-6.51929

> <CNNscore>
0.5117851496

> <CNNaffinity>
4.8427262306

> <CNN_VS>
2.4784352779

> <CNNaffinity_variance>
0.1278756261

$$$$
[H]OC(=O)[C@]1([H])N([H])[C@]([H])(C([H])([H])c2c([H])c([H])c([H])c([N+](=O)[O-])c2[H])C1([H])[H]


 19 20  0  0  0  0  0  0  0  0999 V2000
  -83.5992   31.8347    0.1155 C   0  0  0  0  0  0  0  0  0  0  0  0
  -84.1297   31.0691    1.2648 C   0  0  0  0  0  0  0  0  0  0  0  0
  -84.6615   31.7130    2.3616 C   0  0  0  0  0  0  0  0  0  0  0  0
  -85.1523   30.9794    3.4260 C   0  0  0  0  0  0  0  0  0  0  0  0
  -85.1337   29.6063    3.4405 C   0  0  0  0  0  0  0  0  0  0  0  0
  -84.6010   28.9440    2.3425 C   0  0  0  0  0  0  0  0  0  0  0  0
  -84.1126   29.6764    1.2834 C   0  0  0  0  0  0  0  0  0  0  0  0
  -84.5593   27.5262    2.3101 N   0  0  0  0  0  0  0  0  0  0  0  0
  -83.5149   26.8557    2.8572 O   0  0  0  0  0  0  0  0  0  0  0  0
  -85.4981   26.8956    1.7703 O   0  0  0  0  0  0  0  0  0  0  0  0
  -84.5581   32.9434   -0.2366 C   0  0  0  0  0  0  0  0  0  0  0  0
  -84.4245   33.4485   -1.5918 N   0  0  0  0  0  0  0  0  0  0  0  0
  -85.8568   33.6845   -1.5733 C   0  0  0  0  0  0  0  0  0  0  0  0
  -85.9536   32.4903   -0.6135 C   0  0  0  0  0  0  0  0  0  0  0  0
  -84.2143   32.6798   -2.2830 H   0  0  0  0  0  0  0  0  0  0  0  0
  -86.5456   33.5074   -2.8471 C   0  0  0  0  0  0  0  0  0  0  0  0
  -86.4872   34.4863   -3.8121 O   0  0  0  0  0  0  0  0  0  0  0  0
  -87.1970   32.4640   -3.0766 O   0  0  0  0  0  0  0  0  0  0  0  0
  -85.6198   34.8814   -4.1763 H   0  0  0  0  0  0  0  0  0  0  0  0
  1  2  1  0  0  0
  2  3  2  0  0  0
  3  4  1  0  0  0
  4  5  2  0  0  0
  5  6  1  0  0  0
  6  8  1  0  0  0
  8  9  1  0  0  0
  8 10  2  0  0  0
  6  7  2  0  0  0
  1 11  1  0  0  0
 11 12  1  0  0  0
 12 13  1  0  0  0
 13 16  1  0  0  0
 16 17  1  0  0  0
 16 18  2  0  0  0
 13 14  1  0  0  0
  7  2  1  0  0  0
 14 11  1  0  0  0
 12 15  1  0  0  0
 17 19  1  0  0  0
M  CHG 1   8   1
M  CHG 1   9  -1
M  END
> <minimizedAffinity>
-7.70690

> <CNNscore>
0.5115805864

> <CNNaffinity>
5.2264304161

> <CNN_VS>
2.6737403870

> <CNNaffinity_variance>
0.5519338846

$$$$
[H]OC(=O)[C@]1([H])N([H])[C@]([H])(C([H])([H])c2c([H])c([H])c([H])c([N+](=O)[O-])c2[H])C1([H])[H]


 19 20  0  0  0  0  0  0  0  0999 V2000
  -85.7258   28.9206    2.4479 C   0  0  0  0  0  0  0  0  0  0  0  0
  -84.7169   29.7956    1.8118 C   0  0  0  0  0  0  0  0  0  0  0  0
  -83.3703   29.5193    1.9173 C   0  0  0  0  0  0  0  0  0  0  0  0
  -82.4428   30.3495    1.3153 C   0  0  0  0  0  0  0  0  0  0  0  0
  -82.8104   31.4629    0.6004 C   0  0  0  0  0  0  0  0  0  0  0  0
  -84.1633   31.7538    0.4855 C   0  0  0  0  0  0  0  0  0  0  0  0
  -85.0856   30.9258    1.0858 C   0  0  0  0  0  0  0  0  0  0  0  0
  -84.5933   32.8929   -0.2428 N   0  0  0  0  0  0  0  0  0  0  0  0
  -83.6964   33.6646   -0.9060 O   0  0  0  0  0  0  0  0  0  0  0  0
  -85.8123   33.1819   -0.2689 O   0  0  0  0  0  0  0  0  0  0  0  0
  -86.2933   27.9758    1.4194 C   0  0  0  0  0  0  0  0  0  0  0  0
  -86.5379   26.6297    1.9070 N   0  0  0  0  0  0  0  0  0  0  0  0
  -87.6661   26.5766    0.9949 C   0  0  0  0  0  0  0  0  0  0  0  0
  -87.7864   28.0942    1.1929 C   0  0  0  0  0  0  0  0  0  0  0  0
  -86.8998   26.6261    2.8979 H   0  0  0  0  0  0  0  0  0  0  0  0
  -88.8158   25.8035    1.4520 C   0  0  0  0  0  0  0  0  0  0  0  0
  -88.9099   25.4066    2.7659 O   0  0  0  0  0  0  0  0  0  0  0  0
  -89.7289   25.4927    0.6550 O   0  0  0  0  0  0  0  0  0  0  0  0
  -88.8424   26.0405    3.5627 H   0  0  0  0  0  0  0  0  0  0  0  0
  1  2  1  0  0  0
  2  3  2  0  0  0
  3  4  1  0  0  0
  4  5  2  0  0  0
  5  6  1  0  0  0
  6  8  1  0  0  0
  8  9  1  0  0  0
  8 10  2  0  0  0
  6  7  2  0  0  0
  1 11  1  0  0  0
 11 12  1  0  0  0
 12 13  1  0  0  0
 13 16  1  0  0  0
 16 17  1  0  0  0
 16 18  2  0  0  0
 13 14  1  0  0  0
  7  2  1  0  0  0
 14 11  1  0  0  0
 12 15  1  0  0  0
 17 19  1  0  0  0
M  CHG 1   8   1
M  CHG 1   9  -1
M  END
> <minimizedAffinity>
-7.13161

> <CNNscore>
0.4827767909

> <CNNaffinity>
5.0975403786

> <CNN_VS>
2.4609742165

> <CNNaffinity_variance>
0.1444284916

$$$$
[H]c1nc([H])c(C2([H])C([H])([H])C2([H])[H])c([H])c1-c1nn(C2([H])C([H])([H])C3([H])C([H])([H])C([H])([H])C2([H])C3([H])[H])c2c([H])c([H])c([H])c(F)c12


 26 31  0  0  0  0  0  0  0  0999 V2000
  -87.2058   30.1329    0.2196 F   0  0  0  0  0  0  0  0  0  0  0  0
  -88.0929   30.7741   -0.5527 C   0  0  0  0  0  0  0  0  0  0  0  0
  -89.3352   30.2271   -0.7363 C   0  0  0  0  0  0  0  0  0  0  0  0
  -90.2659   30.8679   -1.4920 C   0  0  0  0  0  0  0  0  0  0  0  0
  -89.9766   32.0778   -2.0850 C   0  0  0  0  0  0  0  0  0  0  0  0
  -88.7292   32.6517   -1.9146 C   0  0  0  0  0  0  0  0  0  0  0  0
  -88.1832   33.8032   -2.3554 N   0  0  0  0  0  0  0  0  0  0  0  0
  -86.9718   33.8627   -1.8917 N   0  0  0  0  0  0  0  0  0  0  0  0
  -86.6682   32.7877   -1.1470 C   0  0  0  0  0  0  0  0  0  0  0  0
  -87.7680   31.9763   -1.1289 C   0  0  0  0  0  0  0  0  0  0  0  0
  -88.9237   34.7261   -3.1930 C   0  0  0  0  0  0  0  0  0  0  0  0
  -89.0137   34.2363   -4.6330 C   0  0  0  0  0  0  0  0  0  0  0  0
  -88.2562   35.2418   -5.4707 C   0  0  0  0  0  0  0  0  0  0  0  0
  -89.0807   36.4816   -5.5794 C   0  0  0  0  0  0  0  0  0  0  0  0
  -89.1410   36.9587   -4.1225 C   0  0  0  0  0  0  0  0  0  0  0  0
  -88.2209   36.0443   -3.3478 C   0  0  0  0  0  0  0  0  0  0  0  0
  -87.2007   35.6943   -4.4447 C   0  0  0  0  0  0  0  0  0  0  0  0
  -85.4036   32.5668   -0.4704 C   0  0  0  0  0  0  0  0  0  0  0  0
  -84.2593   33.2186   -0.9591 C   0  0  0  0  0  0  0  0  0  0  0  0
  -83.0532   33.0363   -0.4228 N   0  0  0  0  0  0  0  0  0  0  0  0
  -82.9003   32.2086    0.6185 C   0  0  0  0  0  0  0  0  0  0  0  0
  -83.9916   31.5421    1.1384 C   0  0  0  0  0  0  0  0  0  0  0  0
  -85.2405   31.7244    0.5902 C   0  0  0  0  0  0  0  0  0  0  0  0
  -83.8030   30.6249    2.2975 C   0  0  0  0  0  0  0  0  0  0  0  0
  -83.2291   29.2831    1.9550 C   0  0  0  0  0  0  0  0  0  0  0  0
  -84.6282   29.4088    2.4413 C   0  0  0  0  0  0  0  0  0  0  0  0
  1  2  1  0  0  0
  2  3  1  0  0  0
  3  4  2  0  0  0
  4  5  1  0  0  0
  5  6  2  0  0  0
  6  7  1  0  0  0
  7  8  1  0  0  0
  8  9  2  0  0  0
  9 18  1  0  0  0
 18 19  2  0  0  0
 19 20  1  0  0  0
 20 21  2  0  0  0
 21 22  1  0  0  0
 22 23  2  0  0  0
 22 24  1  0  0  0
 24 25  1  0  0  0
 25 26  1  0  0  0
  9 10  1  0  0  0
  7 11  1  0  0  0
 11 12  1  0  0  0
 12 13  1  0  0  0
 13 14  1  0  0  0
 14 15  1  0  0  0
 15 16  1  0  0  0
 16 17  1  0  0  0
 10  2  2  0  0  0
 16 11  1  0  0  0
 10  6  1  0  0  0
 17 13  1  0  0  0
 23 18  1  0  0  0
 26 24  1  0  0  0
M  END
> <minimizedAffinity>
-9.81162

> <CNNscore>
0.9259485602

> <CNNaffinity>
7.2845010757

> <CNN_VS>
6.7450733185

> <CNNaffinity_variance>
0.0898272544

$$$$
[H]c1nc([H])c(C2([H])C([H])([H])C2([H])[H])c([H])c1-c1nn(C2([H])C([H])([H])C3([H])C([H])([H])C([H])([H])C2([H])C3([H])[H])c2c([H])c([H])c([H])c(F)c12


 26 31  0  0  0  0  0  0  0  0999 V2000
  -86.3353   33.9046   -1.0554 F   0  0  0  0  0  0  0  0  0  0  0  0
  -87.4134   33.3407   -1.6161 C   0  0  0  0  0  0  0  0  0  0  0  0
  -88.2412   34.1097   -2.3904 C   0  0  0  0  0  0  0  0  0  0  0  0
  -89.3275   33.5596   -2.9950 C   0  0  0  0  0  0  0  0  0  0  0  0
  -89.6138   32.2205   -2.8404 C   0  0  0  0  0  0  0  0  0  0  0  0
  -88.7930   31.4221   -2.0637 C   0  0  0  0  0  0  0  0  0  0  0  0
  -88.8208   30.1105   -1.7516 N   0  0  0  0  0  0  0  0  0  0  0  0
  -87.7982   29.8699   -0.9882 N   0  0  0  0  0  0  0  0  0  0  0  0
  -87.0695   30.9752   -0.7655 C   0  0  0  0  0  0  0  0  0  0  0  0
  -87.6675   32.0042   -1.4378 C   0  0  0  0  0  0  0  0  0  0  0  0
  -89.8625   29.2316   -2.2453 C   0  0  0  0  0  0  0  0  0  0  0  0
  -91.1087   29.2833   -1.3703 C   0  0  0  0  0  0  0  0  0  0  0  0
  -91.2591   27.9056   -0.7652 C   0  0  0  0  0  0  0  0  0  0  0  0
  -91.7414   26.9740   -1.8274 C   0  0  0  0  0  0  0  0  0  0  0  0
  -90.5713   26.9813   -2.8197 C   0  0  0  0  0  0  0  0  0  0  0  0
  -89.4733   27.7835   -2.1610 C   0  0  0  0  0  0  0  0  0  0  0  0
  -89.7775   27.4942   -0.6811 C   0  0  0  0  0  0  0  0  0  0  0  0
  -85.8543   31.0326    0.0255 C   0  0  0  0  0  0  0  0  0  0  0  0
  -84.9439   32.0738   -0.2194 C   0  0  0  0  0  0  0  0  0  0  0  0
  -83.7858   32.1740    0.4321 N   0  0  0  0  0  0  0  0  0  0  0  0
  -83.4553   31.2637    1.3567 C   0  0  0  0  0  0  0  0  0  0  0  0
  -84.3133   30.2193    1.6367 C   0  0  0  0  0  0  0  0  0  0  0  0
  -85.5109   30.1082    0.9683 C   0  0  0  0  0  0  0  0  0  0  0  0
  -83.9294   29.2154    2.6688 C   0  0  0  0  0  0  0  0  0  0  0  0
  -82.7567   28.3543    2.3077 C   0  0  0  0  0  0  0  0  0  0  0  0
  -84.1190   27.7712    2.4261 C   0  0  0  0  0  0  0  0  0  0  0  0
  1  2  1  0  0  0
  2  3  1  0  0  0
  3  4  2  0  0  0
  4  5  1  0  0  0
  5  6  2  0  0  0
  6  7  1  0  0  0
  7  8  1  0  0  0
  8  9  2  0  0  0
  9 18  1  0  0  0
 18 19  2  0  0  0
 19 20  1  0  0  0
 20 21  2  0  0  0
 21 22  1  0  0  0
 22 23  2  0  0  0
 22 24  1  0  0  0
 24 25  1  0  0  0
 25 26  1  0  0  0
  9 10  1  0  0  0
  7 11  1  0  0  0
 11 12  1  0  0  0
 12 13  1  0  0  0
 13 14  1  0  0  0
 14 15  1  0  0  0
 15 16  1  0  0  0
 16 17  1  0  0  0
 10  2  2  0  0  0
 16 11  1  0  0  0
 10  6  1  0  0  0
 17 13  1  0  0  0
 23 18  1  0  0  0
 26 24  1  0  0  0
M  END
> <minimizedAffinity>
-8.96383

> <CNNscore>
0.3582371175

> <CNNaffinity>
6.8648157120

> <CNN_VS>
2.4592318535

> <CNNaffinity_variance>
0.2231332064

$$$$
[H]c1nc([H])c(C2([H])C([H])([H])C2([H])[H])c([H])c1-c1nn(C2([H])C([H])([H])C3([H])C([H])([H])C([H])([H])C2([H])C3([H])[H])c2c([H])c([H])c([H])c(F)c12


 26 31  0  0  0  0  0  0  0  0999 V2000
  -84.8346   33.7589   -0.5595 F   0  0  0  0  0  0  0  0  0  0  0  0
  -84.6789   32.5216   -0.0701 C   0  0  0  0  0  0  0  0  0  0  0  0
  -83.5726   32.2383    0.6863 C   0  0  0  0  0  0  0  0  0  0  0  0
  -83.4006   30.9997    1.2196 C   0  0  0  0  0  0  0  0  0  0  0  0
  -84.3355   30.0092    1.0096 C   0  0  0  0  0  0  0  0  0  0  0  0
  -85.4618   30.2700    0.2496 C   0  0  0  0  0  0  0  0  0  0  0  0
  -86.5224   29.5160   -0.1042 N   0  0  0  0  0  0  0  0  0  0  0  0
  -87.3067   30.2599   -0.8237 N   0  0  0  0  0  0  0  0  0  0  0  0
  -86.8177   31.5008   -0.9760 C   0  0  0  0  0  0  0  0  0  0  0  0
  -85.6300   31.5603   -0.3021 C   0  0  0  0  0  0  0  0  0  0  0  0
  -86.6459   28.1324    0.3104 C   0  0  0  0  0  0  0  0  0  0  0  0
  -87.5027   27.3257   -0.6573 C   0  0  0  0  0  0  0  0  0  0  0  0
  -88.7272   26.8951    0.1185 C   0  0  0  0  0  0  0  0  0  0  0  0
  -88.3298   25.8083    1.0616 C   0  0  0  0  0  0  0  0  0  0  0  0
  -87.3506   26.5320    1.9951 C   0  0  0  0  0  0  0  0  0  0  0  0
  -87.4014   27.9896    1.6005 C   0  0  0  0  0  0  0  0  0  0  0  0
  -88.8503   28.0820    1.0919 C   0  0  0  0  0  0  0  0  0  0  0  0
  -87.4679   32.5743   -1.7045 C   0  0  0  0  0  0  0  0  0  0  0  0
  -88.8311   32.8156   -1.4670 C   0  0  0  0  0  0  0  0  0  0  0  0
  -89.5128   33.7527   -2.1249 N   0  0  0  0  0  0  0  0  0  0  0  0
  -88.9002   34.5035   -3.0489 C   0  0  0  0  0  0  0  0  0  0  0  0
  -87.5614   34.3081   -3.3222 C   0  0  0  0  0  0  0  0  0  0  0  0
  -86.8502   33.3424   -2.6477 C   0  0  0  0  0  0  0  0  0  0  0  0
  -86.8957   35.1529   -4.3536 C   0  0  0  0  0  0  0  0  0  0  0  0
  -87.1869   36.6199   -4.2532 C   0  0  0  0  0  0  0  0  0  0  0  0
  -87.6853   35.8241   -5.4056 C   0  0  0  0  0  0  0  0  0  0  0  0
  1  2  1  0  0  0
  2  3  1  0  0  0
  3  4  2  0  0  0
  4  5  1  0  0  0
  5  6  2  0  0  0
  6  7  1  0  0  0
  7  8  1  0  0  0
  8  9  2  0  0  0
  9 18  1  0  0  0
 18 19  2  0  0  0
 19 20  1  0  0  0
 20 21  2  0  0  0
 21 22  1  0  0  0
 22 23  2  0  0  0
 22 24  1  0  0  0
 24 25  1  0  0  0
 25 26  1  0  0  0
  9 10  1  0  0  0
  7 11  1  0  0  0
 11 12  1  0  0  0
 12 13  1  0  0  0
 13 14  1  0  0  0
 14 15  1  0  0  0
 15 16  1  0  0  0
 16 17  1  0  0  0
 10  2  2  0  0  0
 16 11  1  0  0  0
 10  6  1  0  0  0
 17 13  1  0  0  0
 23 18  1  0  0  0
 26 24  1  0  0  0
M  END
> <minimizedAffinity>
-8.55152

> <CNNscore>
0.3388991952

> <CNNaffinity>
6.7096910477

> <CNN_VS>
2.2739088535

> <CNNaffinity_variance>
0.1834549308

$$$$
[H]c1nc([H])c(C2([H])C([H])([H])C2([H])[H])c([H])c1-c1nn(C2([H])C([H])([H])C3([H])C([H])([H])C([H])([H])C2([H])C3([H])[H])c2c([H])c([H])c([H])c(F)c12


 26 31  0  0  0  0  0  0  0  0999 V2000
  -86.4469   31.9747    0.0837 F   0  0  0  0  0  0  0  0  0  0  0  0
  -87.6429   31.6254   -0.4085 C   0  0  0  0  0  0  0  0  0  0  0  0
  -88.4129   32.5753   -1.0258 C   0  0  0  0  0  0  0  0  0  0  0  0
  -89.6189   32.2452   -1.5595 C   0  0  0  0  0  0  0  0  0  0  0  0
  -90.0866   30.9508   -1.4897 C   0  0  0  0  0  0  0  0  0  0  0  0
  -89.3278   29.9727   -0.8718 C   0  0  0  0  0  0  0  0  0  0  0  0
  -89.5227   28.6537   -0.6702 N   0  0  0  0  0  0  0  0  0  0  0  0
  -88.4832   28.1981   -0.0392 N   0  0  0  0  0  0  0  0  0  0  0  0
  -87.5808   29.1630    0.1997 C   0  0  0  0  0  0  0  0  0  0  0  0
  -88.0765   30.3268   -0.3183 C   0  0  0  0  0  0  0  0  0  0  0  0
  -90.7239   27.9824   -1.1263 C   0  0  0  0  0  0  0  0  0  0  0  0
  -90.8259   26.5664   -0.5732 C   0  0  0  0  0  0  0  0  0  0  0  0
  -90.7448   25.6391   -1.7650 C   0  0  0  0  0  0  0  0  0  0  0  0
  -92.0390   25.7088   -2.5057 C   0  0  0  0  0  0  0  0  0  0  0  0
  -92.0609   27.1671   -2.9820 C   0  0  0  0  0  0  0  0  0  0  0  0
  -90.7158   27.7458   -2.6094 C   0  0  0  0  0  0  0  0  0  0  0  0
  -89.8452   26.4801   -2.6895 C   0  0  0  0  0  0  0  0  0  0  0  0
  -86.3047   28.9713    0.8633 C   0  0  0  0  0  0  0  0  0  0  0  0
  -86.1915   27.9436    1.8141 C   0  0  0  0  0  0  0  0  0  0  0  0
  -85.0689   27.7287    2.4991 N   0  0  0  0  0  0  0  0  0  0  0  0
  -83.9979   28.5053    2.2924 C   0  0  0  0  0  0  0  0  0  0  0  0
  -84.0545   29.5302    1.3696 C   0  0  0  0  0  0  0  0  0  0  0  0
  -85.2099   29.7591    0.6583 C   0  0  0  0  0  0  0  0  0  0  0  0
  -82.8530   30.3845    1.1524 C   0  0  0  0  0  0  0  0  0  0  0  0
  -83.0636   31.8472    1.4032 C   0  0  0  0  0  0  0  0  0  0  0  0
  -82.7996   31.3427    0.0301 C   0  0  0  0  0  0  0  0  0  0  0  0
  1  2  1  0  0  0
  2  3  1  0  0  0
  3  4  2  0  0  0
  4  5  1  0  0  0
  5  6  2  0  0  0
  6  7  1  0  0  0
  7  8  1  0  0  0
  8  9  2  0  0  0
  9 18  1  0  0  0
 18 19  2  0  0  0
 19 20  1  0  0  0
 20 21  2  0  0  0
 21 22  1  0  0  0
 22 23  2  0  0  0
 22 24  1  0  0  0
 24 25  1  0  0  0
 25 26  1  0  0  0
  9 10  1  0  0  0
  7 11  1  0  0  0
 11 12  1  0  0  0
 12 13  1  0  0  0
 13 14  1  0  0  0
 14 15  1  0  0  0
 15 16  1  0  0  0
 16 17  1  0  0  0
 10  2  2  0  0  0
 16 11  1  0  0  0
 10  6  1  0  0  0
 17 13  1  0  0  0
 23 18  1  0  0  0
 26 24  1  0  0  0
M  END
> <minimizedAffinity>
-9.12323

> <CNNscore>
0.2678239346

> <CNNaffinity>
6.5240774155

> <CNN_VS>
1.7473040819

> <CNNaffinity_variance>
0.1834847182

$$$$
[H]c1nc([H])c(C2([H])C([H])([H])C2([H])[H])c([H])c1-c1nn(C2([H])C([H])([H])C3([H])C([H])([H])C([H])([H])C2([H])C3([H])[H])c2c([H])c([H])c([H])c(F)c12


 26 31  0  0  0  0  0  0  0  0999 V2000
  -84.6952   27.9577    1.7882 F   0  0  0  0  0  0  0  0  0  0  0  0
  -84.6996   29.2357    1.3864 C   0  0  0  0  0  0  0  0  0  0  0  0
  -83.5715   29.9929    1.5598 C   0  0  0  0  0  0  0  0  0  0  0  0
  -83.5363   31.2845    1.1374 C   0  0  0  0  0  0  0  0  0  0  0  0
  -84.6332   31.8535    0.5273 C   0  0  0  0  0  0  0  0  0  0  0  0
  -85.7847   31.1098    0.3399 C   0  0  0  0  0  0  0  0  0  0  0  0
  -86.9769   31.3941   -0.2226 N   0  0  0  0  0  0  0  0  0  0  0  0
  -87.7091   30.3244   -0.1453 N   0  0  0  0  0  0  0  0  0  0  0  0
  -87.0577   29.3148    0.4534 C   0  0  0  0  0  0  0  0  0  0  0  0
  -85.8116   29.7686    0.7847 C   0  0  0  0  0  0  0  0  0  0  0  0
  -87.2645   32.7014   -0.7791 C   0  0  0  0  0  0  0  0  0  0  0  0
  -88.7587   32.9097   -0.9920 C   0  0  0  0  0  0  0  0  0  0  0  0
  -88.9589   33.0478   -2.4846 C   0  0  0  0  0  0  0  0  0  0  0  0
  -88.4597   34.3904   -2.9051 C   0  0  0  0  0  0  0  0  0  0  0  0
  -86.9618   34.2925   -2.5881 C   0  0  0  0  0  0  0  0  0  0  0  0
  -86.7188   32.8613   -2.1692 C   0  0  0  0  0  0  0  0  0  0  0  0
  -87.8119   32.1509   -2.9859 C   0  0  0  0  0  0  0  0  0  0  0  0
  -87.5929   27.9834    0.6698 C   0  0  0  0  0  0  0  0  0  0  0  0
  -87.6957   27.1155   -0.4298 C   0  0  0  0  0  0  0  0  0  0  0  0
  -88.2156   25.8931   -0.3251 N   0  0  0  0  0  0  0  0  0  0  0  0
  -88.6625   25.4533    0.8580 C   0  0  0  0  0  0  0  0  0  0  0  0
  -88.5859   26.2654    1.9715 C   0  0  0  0  0  0  0  0  0  0  0  0
  -88.0508   27.5292    1.8720 C   0  0  0  0  0  0  0  0  0  0  0  0
  -89.0879   25.7595    3.2802 C   0  0  0  0  0  0  0  0  0  0  0  0
  -90.5795   25.7622    3.4288 C   0  0  0  0  0  0  0  0  0  0  0  0
  -89.7335   26.6714    4.2458 C   0  0  0  0  0  0  0  0  0  0  0  0
  1  2  1  0  0  0
  2  3  1  0  0  0
  3  4  2  0  0  0
  4  5  1  0  0  0
  5  6  2  0  0  0
  6  7  1  0  0  0
  7  8  1  0  0  0
  8  9  2  0  0  0
  9 18  1  0  0  0
 18 19  2  0  0  0
 19 20  1  0  0  0
 20 21  2  0  0  0
 21 22  1  0  0  0
 22 23  2  0  0  0
 22 24  1  0  0  0
 24 25  1  0  0  0
 25 26  1  0  0  0
  9 10  1  0  0  0
  7 11  1  0  0  0
 11 12  1  0  0  0
 12 13  1  0  0  0
 13 14  1  0  0  0
 14 15  1  0  0  0
 15 16  1  0  0  0
 16 17  1  0  0  0
 10  2  2  0  0  0
 16 11  1  0  0  0
 10  6  1  0  0  0
 17 13  1  0  0  0
 23 18  1  0  0  0
 26 24  1  0  0  0
M  END
> <minimizedAffinity>
-9.41883

> <CNNscore>
0.2424846292

> <CNNaffinity>
6.6638970375

> <CNN_VS>
1.6158926487

> <CNNaffinity_variance>
0.1808807105

$$$$
[H]c1nc([H])c(C2([H])C([H])([H])C2([H])[H])c([H])c1-c1nn(C2([H])C([H])([H])C3([H])C([H])([H])C([H])([H])C2([H])C3([H])[H])c2c([H])c([H])c([H])c(F)c12


 26 31  0  0  0  0  0  0  0  0999 V2000
  -84.9654   32.3741    0.9930 F   0  0  0  0  0  0  0  0  0  0  0  0
  -85.2869   31.1308    1.3746 C   0  0  0  0  0  0  0  0  0  0  0  0
  -84.6797   30.5946    2.4790 C   0  0  0  0  0  0  0  0  0  0  0  0
  -85.0052   29.3460    2.9069 C   0  0  0  0  0  0  0  0  0  0  0  0
  -85.9512   28.5994    2.2384 C   0  0  0  0  0  0  0  0  0  0  0  0
  -86.5794   29.1185    1.1202 C   0  0  0  0  0  0  0  0  0  0  0  0
  -87.5281   28.6321    0.2945 N   0  0  0  0  0  0  0  0  0  0  0  0
  -87.7700   29.5420   -0.5998 N   0  0  0  0  0  0  0  0  0  0  0  0
  -87.0167   30.6377   -0.4148 C   0  0  0  0  0  0  0  0  0  0  0  0
  -86.2321   30.4166    0.6825 C   0  0  0  0  0  0  0  0  0  0  0  0
  -88.0962   27.3114    0.4806 C   0  0  0  0  0  0  0  0  0  0  0  0
  -88.9867   26.9084   -0.6881 C   0  0  0  0  0  0  0  0  0  0  0  0
  -90.3862   26.7798   -0.1298 C   0  0  0  0  0  0  0  0  0  0  0  0
  -90.4579   25.5271    0.6791 C   0  0  0  0  0  0  0  0  0  0  0  0
  -89.4694   25.8188    1.8156 C   0  0  0  0  0  0  0  0  0  0  0  0
  -89.0489   27.2595    1.6404 C   0  0  0  0  0  0  0  0  0  0  0  0
  -90.3186   27.8348    0.9899 C   0  0  0  0  0  0  0  0  0  0  0  0
  -87.0679   31.8374   -1.2296 C   0  0  0  0  0  0  0  0  0  0  0  0
  -85.8579   32.4320   -1.6236 C   0  0  0  0  0  0  0  0  0  0  0  0
  -85.8170   33.5579   -2.3350 N   0  0  0  0  0  0  0  0  0  0  0  0
  -86.9547   34.1628   -2.6994 C   0  0  0  0  0  0  0  0  0  0  0  0
  -88.1721   33.6215   -2.3385 C   0  0  0  0  0  0  0  0  0  0  0  0
  -88.2231   32.4593   -1.6036 C   0  0  0  0  0  0  0  0  0  0  0  0
  -89.4282   34.3080   -2.7527 C   0  0  0  0  0  0  0  0  0  0  0  0
  -89.8301   34.0839   -4.1793 C   0  0  0  0  0  0  0  0  0  0  0  0
  -89.3957   35.4276   -3.7150 C   0  0  0  0  0  0  0  0  0  0  0  0
  1  2  1  0  0  0
  2  3  1  0  0  0
  3  4  2  0  0  0
  4  5  1  0  0  0
  5  6  2  0  0  0
  6  7  1  0  0  0
  7  8  1  0  0  0
  8  9  2  0  0  0
  9 18  1  0  0  0
 18 19  2  0  0  0
 19 20  1  0  0  0
 20 21  2  0  0  0
 21 22  1  0  0  0
 22 23  2  0  0  0
 22 24  1  0  0  0
 24 25  1  0  0  0
 25 26  1  0  0  0
  9 10  1  0  0  0
  7 11  1  0  0  0
 11 12  1  0  0  0
 12 13  1  0  0  0
 13 14  1  0  0  0
 14 15  1  0  0  0
 15 16  1  0  0  0
 16 17  1  0  0  0
 10  2  2  0  0  0
 16 11  1  0  0  0
 10  6  1  0  0  0
 17 13  1  0  0  0
 23 18  1  0  0  0
 26 24  1  0  0  0
M  END
> <minimizedAffinity>
-8.23429

> <CNNscore>
0.2235440910

> <CNNaffinity>
6.7142753601

> <CNN_VS>
1.5009366274

> <CNNaffinity_variance>
0.2513369024

$$$$
[H]c1nc([H])c(C2([H])C([H])([H])C2([H])[H])c([H])c1-c1nn(C2([H])C([H])([H])C3([H])C([H])([H])C([H])([H])C2([H])C3([H])[H])c2c([H])c([H])c([H])c(F)c12


 26 31  0  0  0  0  0  0  0  0999 V2000
  -90.7856   29.4028    0.1227 F   0  0  0  0  0  0  0  0  0  0  0  0
  -89.7641   30.2063   -0.2021 C   0  0  0  0  0  0  0  0  0  0  0  0
  -90.0294   31.4364   -0.7430 C   0  0  0  0  0  0  0  0  0  0  0  0
  -89.0148   32.2849   -1.0572 C   0  0  0  0  0  0  0  0  0  0  0  0
  -87.7035   31.9231   -0.8365 C   0  0  0  0  0  0  0  0  0  0  0  0
  -87.4089   30.6862   -0.2908 C   0  0  0  0  0  0  0  0  0  0  0  0
  -86.2483   30.0834    0.0378 N   0  0  0  0  0  0  0  0  0  0  0  0
  -86.5402   28.9173    0.5290 N   0  0  0  0  0  0  0  0  0  0  0  0
  -87.8649   28.6999    0.5471 C   0  0  0  0  0  0  0  0  0  0  0  0
  -88.4709   29.8107    0.0303 C   0  0  0  0  0  0  0  0  0  0  0  0
  -84.9678   30.7303   -0.1709 C   0  0  0  0  0  0  0  0  0  0  0  0
  -83.8182   29.9059    0.3948 C   0  0  0  0  0  0  0  0  0  0  0  0
  -83.2167   30.7282    1.5123 C   0  0  0  0  0  0  0  0  0  0  0  0
  -82.4412   31.8510    0.9068 C   0  0  0  0  0  0  0  0  0  0  0  0
  -83.5383   32.6576    0.1999 C   0  0  0  0  0  0  0  0  0  0  0  0
  -84.8470   32.0153    0.5970 C   0  0  0  0  0  0  0  0  0  0  0  0
  -84.4737   31.4790    1.9896 C   0  0  0  0  0  0  0  0  0  0  0  0
  -88.5111   27.5047    1.0567 C   0  0  0  0  0  0  0  0  0  0  0  0
  -88.9470   26.5353    0.1384 C   0  0  0  0  0  0  0  0  0  0  0  0
  -89.5873   25.4308    0.5202 N   0  0  0  0  0  0  0  0  0  0  0  0
  -89.8358   25.2142    1.8179 C   0  0  0  0  0  0  0  0  0  0  0  0
  -89.4295   26.1347    2.7629 C   0  0  0  0  0  0  0  0  0  0  0  0
  -88.7682   27.2780    2.3771 C   0  0  0  0  0  0  0  0  0  0  0  0
  -89.7144   25.8772    4.2028 C   0  0  0  0  0  0  0  0  0  0  0  0
  -91.0996   26.2384    4.6476 C   0  0  0  0  0  0  0  0  0  0  0  0
  -89.9209   26.9959    5.1443 C   0  0  0  0  0  0  0  0  0  0  0  0
  1  2  1  0  0  0
  2  3  1  0  0  0
  3  4  2  0  0  0
  4  5  1  0  0  0
  5  6  2  0  0  0
  6  7  1  0  0  0
  7  8  1  0  0  0
  8  9  2  0  0  0
  9 18  1  0  0  0
 18 19  2  0  0  0
 19 20  1  0  0  0
 20 21  2  0  0  0
 21 22  1  0  0  0
 22 23  2  0  0  0
 22 24  1  0  0  0
 24 25  1  0  0  0
 25 26  1  0  0  0
  9 10  1  0  0  0
  7 11  1  0  0  0
 11 12  1  0  0  0
 12 13  1  0  0  0
 13 14  1  0  0  0
 14 15  1  0  0  0
 15 16  1  0  0  0
 16 17  1  0  0  0
 10  2  2  0  0  0
 16 11  1  0  0  0
 10  6  1  0  0  0
 17 13  1  0  0  0
 23 18  1  0  0  0
 26 24  1  0  0  0
M  END
> <minimizedAffinity>
-9.35796

> <CNNscore>
0.2211898267

> <CNNaffinity>
6.6326241493

> <CNN_VS>
1.4670690298

> <CNNaffinity_variance>
0.1524144411

$$$$
[H]c1nc([H])c(C2([H])C([H])([H])C2([H])[H])c([H])c1-c1nn(C2([H])C([H])([H])C3([H])C([H])([H])C([H])([H])C2([H])C3([H])[H])c2c([H])c([H])c([H])c(F)c12


 26 31  0  0  0  0  0  0  0  0999 V2000
  -85.2362   31.6654   -0.3042 F   0  0  0  0  0  0  0  0  0  0  0  0
  -85.4382   30.6984    0.6007 C   0  0  0  0  0  0  0  0  0  0  0  0
  -84.6581   30.6652    1.7261 C   0  0  0  0  0  0  0  0  0  0  0  0
  -84.8575   29.7127    2.6754 C   0  0  0  0  0  0  0  0  0  0  0  0
  -85.8471   28.7658    2.5225 C   0  0  0  0  0  0  0  0  0  0  0  0
  -86.6488   28.7780    1.3950 C   0  0  0  0  0  0  0  0  0  0  0  0
  -87.6760   28.0019    0.9936 N   0  0  0  0  0  0  0  0  0  0  0  0
  -88.0849   28.4583   -0.1513 N   0  0  0  0  0  0  0  0  0  0  0  0
  -87.3703   29.5228   -0.5493 C   0  0  0  0  0  0  0  0  0  0  0  0
  -86.4319   29.7711    0.4132 C   0  0  0  0  0  0  0  0  0  0  0  0
  -88.1449   26.8858    1.7910 C   0  0  0  0  0  0  0  0  0  0  0  0
  -89.0341   25.9477    0.9844 C   0  0  0  0  0  0  0  0  0  0  0  0
  -90.4065   26.0176    1.6156 C   0  0  0  0  0  0  0  0  0  0  0  0
  -90.3694   25.2721    2.9085 C   0  0  0  0  0  0  0  0  0  0  0  0
  -89.3755   26.1016    3.7318 C   0  0  0  0  0  0  0  0  0  0  0  0
  -89.0619   27.3218    2.8975 C   0  0  0  0  0  0  0  0  0  0  0  0
  -90.3850   27.4700    2.1269 C   0  0  0  0  0  0  0  0  0  0  0  0
  -87.5944   30.2736   -1.7707 C   0  0  0  0  0  0  0  0  0  0  0  0
  -87.7700   29.5646   -2.9704 C   0  0  0  0  0  0  0  0  0  0  0  0
  -87.9374   30.1782   -4.1414 N   0  0  0  0  0  0  0  0  0  0  0  0
  -87.9424   31.5157   -4.2031 C   0  0  0  0  0  0  0  0  0  0  0  0
  -87.7737   32.2618   -3.0540 C   0  0  0  0  0  0  0  0  0  0  0  0
  -87.5997   31.6361   -1.8409 C   0  0  0  0  0  0  0  0  0  0  0  0
  -87.7820   33.7494   -3.1414 C   0  0  0  0  0  0  0  0  0  0  0  0
  -89.1349   34.3824   -3.0156 C   0  0  0  0  0  0  0  0  0  0  0  0
  -88.3884   34.4352   -4.3000 C   0  0  0  0  0  0  0  0  0  0  0  0
  1  2  1  0  0  0
  2  3  1  0  0  0
  3  4  2  0  0  0
  4  5  1  0  0  0
  5  6  2  0  0  0
  6  7  1  0  0  0
  7  8  1  0  0  0
  8  9  2  0  0  0
  9 18  1  0  0  0
 18 19  2  0  0  0
 19 20  1  0  0  0
 20 21  2  0  0  0
 21 22  1  0  0  0
 22 23  2  0  0  0
 22 24  1  0  0  0
 24 25  1  0  0  0
 25 26  1  0  0  0
  9 10  1  0  0  0
  7 11  1  0  0  0
 11 12  1  0  0  0
 12 13  1  0  0  0
 13 14  1  0  0  0
 14 15  1  0  0  0
 15 16  1  0  0  0
 16 17  1  0  0  0
 10  2  2  0  0  0
 16 11  1  0  0  0
 10  6  1  0  0  0
 17 13  1  0  0  0
 23 18  1  0  0  0
 26 24  1  0  0  0
M  END
> <minimizedAffinity>
-9.10476

> <CNNscore>
0.2070179582

> <CNNaffinity>
6.6410927773

> <CNN_VS>
1.3748254776

> <CNNaffinity_variance>
0.1313291788

$$$$
[H]c1nc([H])c(C2([H])C([H])([H])C2([H])[H])c([H])c1-c1nn(C2([H])C([H])([H])C3([H])C([H])([H])C([H])([H])C2([H])C3([H])[H])c2c([H])c([H])c([H])c(F)c12


 26 31  0  0  0  0  0  0  0  0999 V2000
  -85.9293   33.5378   -1.8388 F   0  0  0  0  0  0  0  0  0  0  0  0
  -87.1343   33.7755   -2.3737 C   0  0  0  0  0  0  0  0  0  0  0  0
  -87.3565   34.9659   -3.0139 C   0  0  0  0  0  0  0  0  0  0  0  0
  -88.5601   35.2246   -3.5905 C   0  0  0  0  0  0  0  0  0  0  0  0
  -89.5759   34.2946   -3.5420 C   0  0  0  0  0  0  0  0  0  0  0  0
  -89.3767   33.0843   -2.9018 C   0  0  0  0  0  0  0  0  0  0  0  0
  -90.1666   32.0080   -2.7121 N   0  0  0  0  0  0  0  0  0  0  0  0
  -89.4773   31.1312   -2.0470 N   0  0  0  0  0  0  0  0  0  0  0  0
  -88.2392   31.5718   -1.7731 C   0  0  0  0  0  0  0  0  0  0  0  0
  -88.1225   32.8262   -2.3037 C   0  0  0  0  0  0  0  0  0  0  0  0
  -91.5265   31.9630   -3.2124 C   0  0  0  0  0  0  0  0  0  0  0  0
  -92.3008   30.7814   -2.6418 C   0  0  0  0  0  0  0  0  0  0  0  0
  -92.6260   29.8823   -3.8135 C   0  0  0  0  0  0  0  0  0  0  0  0
  -93.7099   30.5247   -4.6142 C   0  0  0  0  0  0  0  0  0  0  0  0
  -93.0274   31.8044   -5.1144 C   0  0  0  0  0  0  0  0  0  0  0  0
  -91.5814   31.6971   -4.6895 C   0  0  0  0  0  0  0  0  0  0  0  0
  -91.4064   30.1689   -4.7089 C   0  0  0  0  0  0  0  0  0  0  0  0
  -87.2192   30.8199   -1.0661 C   0  0  0  0  0  0  0  0  0  0  0  0
  -87.2048   29.4216   -1.1987 C   0  0  0  0  0  0  0  0  0  0  0  0
  -86.3297   28.6544   -0.5496 N   0  0  0  0  0  0  0  0  0  0  0  0
  -85.4227   29.2114    0.2628 C   0  0  0  0  0  0  0  0  0  0  0  0
  -85.3925   30.5812    0.4300 C   0  0  0  0  0  0  0  0  0  0  0  0
  -86.2928   31.3806   -0.2362 C   0  0  0  0  0  0  0  0  0  0  0  0
  -84.3762   31.1839    1.3380 C   0  0  0  0  0  0  0  0  0  0  0  0
  -83.1346   31.6773    0.6582 C   0  0  0  0  0  0  0  0  0  0  0  0
  -83.0839   30.5112    1.5787 C   0  0  0  0  0  0  0  0  0  0  0  0
  1  2  1  0  0  0
  2  3  1  0  0  0
  3  4  2  0  0  0
  4  5  1  0  0  0
  5  6  2  0  0  0
  6  7  1  0  0  0
  7  8  1  0  0  0
  8  9  2  0  0  0
  9 18  1  0  0  0
 18 19  2  0  0  0
 19 20  1  0  0  0
 20 21  2  0  0  0
 21 22  1  0  0  0
 22 23  2  0  0  0
 22 24  1  0  0  0
 24 25  1  0  0  0
 25 26  1  0  0  0
  9 10  1  0  0  0
  7 11  1  0  0  0
 11 12  1  0  0  0
 12 13  1  0  0  0
 13 14  1  0  0  0
 14 15  1  0  0  0
 15 16  1  0  0  0
 16 17  1  0  0  0
 10  2  2  0  0  0
 16 11  1  0  0  0
 10  6  1  0  0  0
 17 13  1  0  0  0
 23 18  1  0  0  0
 26 24  1  0  0  0
M  END
> <minimizedAffinity>
-7.86260

> <CNNscore>
0.2035119981

> <CNNaffinity>
6.2496557236

> <CNN_VS>
1.2718799114

> <CNNaffinity_variance>
0.1437168866

$$$$
[H]c1c([H])c(Oc2nc3c([H])c(C(=O)N([H])c4c([H])c([H])c(C([H])([H])[H])c(C(F)(F)F)c4[H])c([H])c([H])c3n2C([H])([H])[H])c(F)c([H])c1F


 34 37  0  0  0  0  0  0  0  0999 V2000
  -88.8147   30.6667   -2.5024 C   0  0  0  0  0  0  0  0  0  0  0  0
  -87.8703   29.6561   -2.6373 C   0  0  0  0  0  0  0  0  0  0  0  0
  -87.9102   28.4719   -1.9416 C   0  0  0  0  0  0  0  0  0  0  0  0
  -88.9509   28.2810   -1.0593 C   0  0  0  0  0  0  0  0  0  0  0  0
  -89.2273   27.2234   -0.2585 N   0  0  0  0  0  0  0  0  0  0  0  0
  -88.4348   26.0006   -0.1613 C   0  0  0  0  0  0  0  0  0  0  0  0
  -90.3545   27.5531    0.3957 C   0  0  0  0  0  0  0  0  0  0  0  0
  -90.7636   28.7760    0.0125 N   0  0  0  0  0  0  0  0  0  0  0  0
  -89.9014   29.2653   -0.9051 C   0  0  0  0  0  0  0  0  0  0  0  0
  -89.8440   30.4667   -1.6234 C   0  0  0  0  0  0  0  0  0  0  0  0
  -88.5118   33.1166   -2.6742 N   0  0  0  0  0  0  0  0  0  0  0  0
  -88.6401   31.8877   -3.3102 C   0  0  0  0  0  0  0  0  0  0  0  0
  -88.6106   31.7968   -4.5673 O   0  0  0  0  0  0  0  0  0  0  0  0
  -88.5532   33.1383   -1.6059 H   0  0  0  0  0  0  0  0  0  0  0  0
  -88.0626   38.0977   -5.3653 C   0  0  0  0  0  0  0  0  0  0  0  0
  -88.2550   36.8225   -4.6505 C   0  0  0  0  0  0  0  0  0  0  0  0
  -87.1317   36.0381   -4.4919 C   0  0  0  0  0  0  0  0  0  0  0  0
  -87.1465   34.8060   -3.8403 C   0  0  0  0  0  0  0  0  0  0  0  0
  -88.3287   34.3532   -3.3356 C   0  0  0  0  0  0  0  0  0  0  0  0
  -89.4683   35.1693   -3.5068 C   0  0  0  0  0  0  0  0  0  0  0  0
  -89.4493   36.3771   -4.1460 C   0  0  0  0  0  0  0  0  0  0  0  0
  -90.6555   37.2238   -4.3182 C   0  0  0  0  0  0  0  0  0  0  0  0
  -91.6852   36.5809   -3.6130 F   0  0  0  0  0  0  0  0  0  0  0  0
  -90.5223   38.4602   -3.6814 F   0  0  0  0  0  0  0  0  0  0  0  0
  -91.0808   37.3265   -5.6053 F   0  0  0  0  0  0  0  0  0  0  0  0
  -90.9712   26.7243    1.3213 O   0  0  0  0  0  0  0  0  0  0  0  0
  -90.5786   26.6153    2.6354 C   0  0  0  0  0  0  0  0  0  0  0  0
  -89.9988   25.4771    3.1435 C   0  0  0  0  0  0  0  0  0  0  0  0
  -89.6186   25.4099    4.4727 C   0  0  0  0  0  0  0  0  0  0  0  0
  -89.8083   26.4801    5.3295 C   0  0  0  0  0  0  0  0  0  0  0  0
  -89.4323   26.4085    6.6360 F   0  0  0  0  0  0  0  0  0  0  0  0
  -90.3926   27.6200    4.8068 C   0  0  0  0  0  0  0  0  0  0  0  0
  -90.7676   27.6746    3.4784 C   0  0  0  0  0  0  0  0  0  0  0  0
  -91.3351   28.8388    3.0549 F   0  0  0  0  0  0  0  0  0  0  0  0
 15 16  1  0  0  0
 16 17  2  0  0  0
 17 18  1  0  0  0
 18 19  2  0  0  0
 19 11  1  0  0  0
 11 12  1  0  0  0
 12 13  2  0  0  0
 12  1  1  0  0  0
  1  2  2  0  0  0
  2  3  1  0  0  0
  3  4  2  0  0  0
  4  5  1  0  0  0
  5  6  1  0  0  0
  5  7  1  0  0  0
  7 26  1  0  0  0
 26 27  1  0  0  0
 27 28  2  0  0  0
 28 29  1  0  0  0
 29 30  2  0  0  0
 30 31  1  0  0  0
 30 32  1  0  0  0
 32 33  2  0  0  0
 33 34  1  0  0  0
  7  8  2  0  0  0
  8  9  1  0  0  0
  9 10  2  0  0  0
 19 20  1  0  0  0
 20 21  2  0  0  0
 21 22  1  0  0  0
 22 23  1  0  0  0
 22 24  1  0  0  0
 22 25  1  0  0  0
 21 16  1  0  0  0
 10  1  1  0  0  0
  9  4  1  0  0  0
 33 27  1  0  0  0
 11 14  1  0  0  0
M  END
> <minimizedAffinity>
-8.48938

> <CNNscore>
0.1640264690

> <CNNaffinity>
5.9517393112

> <CNN_VS>
0.9762427807

> <CNNaffinity_variance>
0.1285001338

$$$$
[H]c1c([H])c(Oc2nc3c([H])c(C(=O)N([H])c4c([H])c([H])c(C([H])([H])[H])c(C(F)(F)F)c4[H])c([H])c([H])c3n2C([H])([H])[H])c(F)c([H])c1F


 34 37  0  0  0  0  0  0  0  0999 V2000
  -89.2071   31.9018   -2.6209 C   0  0  0  0  0  0  0  0  0  0  0  0
  -88.0483   31.1349   -2.6359 C   0  0  0  0  0  0  0  0  0  0  0  0
  -87.9121   29.9386   -1.9738 C   0  0  0  0  0  0  0  0  0  0  0  0
  -88.9924   29.4774   -1.2539 C   0  0  0  0  0  0  0  0  0  0  0  0
  -89.1275   28.3465   -0.5196 N   0  0  0  0  0  0  0  0  0  0  0  0
  -88.0985   27.3277   -0.3305 C   0  0  0  0  0  0  0  0  0  0  0  0
  -90.3785   28.3841   -0.0289 C   0  0  0  0  0  0  0  0  0  0  0  0
  -90.9990   29.5026   -0.4458 N   0  0  0  0  0  0  0  0  0  0  0  0
  -90.1538   30.2164   -1.2212 C   0  0  0  0  0  0  0  0  0  0  0  0
  -90.2738   31.4344   -1.9028 C   0  0  0  0  0  0  0  0  0  0  0  0
  -88.0606   33.9556   -3.3896 N   0  0  0  0  0  0  0  0  0  0  0  0
  -89.2064   33.1695   -3.3739 C   0  0  0  0  0  0  0  0  0  0  0  0
  -90.2477   33.5204   -3.9919 O   0  0  0  0  0  0  0  0  0  0  0  0
  -87.2082   33.6155   -2.8408 H   0  0  0  0  0  0  0  0  0  0  0  0
  -87.6267   39.0174   -5.9282 C   0  0  0  0  0  0  0  0  0  0  0  0
  -87.7328   37.7402   -5.1989 C   0  0  0  0  0  0  0  0  0  0  0  0
  -87.7657   36.5988   -5.9723 C   0  0  0  0  0  0  0  0  0  0  0  0
  -87.8641   35.3159   -5.4364 C   0  0  0  0  0  0  0  0  0  0  0  0
  -87.9320   35.1821   -4.0817 C   0  0  0  0  0  0  0  0  0  0  0  0
  -87.8967   36.3613   -3.3057 C   0  0  0  0  0  0  0  0  0  0  0  0
  -87.7996   37.6175   -3.8353 C   0  0  0  0  0  0  0  0  0  0  0  0
  -87.7637   38.8476   -3.0066 C   0  0  0  0  0  0  0  0  0  0  0  0
  -87.6284   38.4167   -1.6773 F   0  0  0  0  0  0  0  0  0  0  0  0
  -86.6125   39.6036   -3.2419 F   0  0  0  0  0  0  0  0  0  0  0  0
  -88.9067   39.5818   -3.0553 F   0  0  0  0  0  0  0  0  0  0  0  0
  -90.9108   27.3941    0.7837 O   0  0  0  0  0  0  0  0  0  0  0  0
  -90.6260   27.2656    2.1236 C   0  0  0  0  0  0  0  0  0  0  0  0
  -90.6926   28.3227    2.9999 C   0  0  0  0  0  0  0  0  0  0  0  0
  -90.3976   28.1492    4.3411 C   0  0  0  0  0  0  0  0  0  0  0  0
  -90.0281   26.9129    4.8417 C   0  0  0  0  0  0  0  0  0  0  0  0
  -89.7392   26.7481    6.1619 F   0  0  0  0  0  0  0  0  0  0  0  0
  -89.9647   25.8568    3.9503 C   0  0  0  0  0  0  0  0  0  0  0  0
  -90.2615   26.0429    2.6142 C   0  0  0  0  0  0  0  0  0  0  0  0
  -90.1713   24.9441    1.8133 F   0  0  0  0  0  0  0  0  0  0  0  0
 15 16  1  0  0  0
 16 17  2  0  0  0
 17 18  1  0  0  0
 18 19  2  0  0  0
 19 11  1  0  0  0
 11 12  1  0  0  0
 12 13  2  0  0  0
 12  1  1  0  0  0
  1  2  2  0  0  0
  2  3  1  0  0  0
  3  4  2  0  0  0
  4  5  1  0  0  0
  5  6  1  0  0  0
  5  7  1  0  0  0
  7 26  1  0  0  0
 26 27  1  0  0  0
 27 28  2  0  0  0
 28 29  1  0  0  0
 29 30  2  0  0  0
 30 31  1  0  0  0
 30 32  1  0  0  0
 32 33  2  0  0  0
 33 34  1  0  0  0
  7  8  2  0  0  0
  8  9  1  0  0  0
  9 10  2  0  0  0
 19 20  1  0  0  0
 20 21  2  0  0  0
 21 22  1  0  0  0
 22 23  1  0  0  0
 22 24  1  0  0  0
 22 25  1  0  0  0
 21 16  1  0  0  0
 10  1  1  0  0  0
  9  4  1  0  0  0
 33 27  1  0  0  0
 11 14  1  0  0  0
M  END
> <minimizedAffinity>
-8.31336

> <CNNscore>
0.1559723616

> <CNNaffinity>
5.8116207123

> <CNN_VS>
0.9064521790

> <CNNaffinity_variance>
0.2095810920

$$$$
[H]c1c([H])c(Oc2nc3c([H])c(C(=O)N([H])c4c([H])c([H])c(C([H])([H])[H])c(C(F)(F)F)c4[H])c([H])c([H])c3n2C([H])([H])[H])c(F)c([H])c1F


 34 37  0  0  0  0  0  0  0  0999 V2000
  -90.4751   31.1057   -2.3119 C   0  0  0  0  0  0  0  0  0  0  0  0
  -90.6611   31.9297   -3.4154 C   0  0  0  0  0  0  0  0  0  0  0  0
  -91.6343   31.7312   -4.3649 C   0  0  0  0  0  0  0  0  0  0  0  0
  -92.4723   30.6491   -4.2079 C   0  0  0  0  0  0  0  0  0  0  0  0
  -93.5001   30.2272   -4.9838 N   0  0  0  0  0  0  0  0  0  0  0  0
  -93.9558   30.8689   -6.2140 C   0  0  0  0  0  0  0  0  0  0  0  0
  -93.9789   29.1265   -4.3784 C   0  0  0  0  0  0  0  0  0  0  0  0
  -93.2705   28.8744   -3.2629 N   0  0  0  0  0  0  0  0  0  0  0  0
  -92.3113   29.8155   -3.1239 C   0  0  0  0  0  0  0  0  0  0  0  0
  -91.3130   30.0340   -2.1658 C   0  0  0  0  0  0  0  0  0  0  0  0
  -88.1501   30.8146   -1.5163 N   0  0  0  0  0  0  0  0  0  0  0  0
  -89.3841   31.4383   -1.3774 C   0  0  0  0  0  0  0  0  0  0  0  0
  -89.5894   32.2843   -0.4655 O   0  0  0  0  0  0  0  0  0  0  0  0
  -88.0327   30.0980   -2.3012 H   0  0  0  0  0  0  0  0  0  0  0  0
  -83.7267   31.5731    1.9641 C   0  0  0  0  0  0  0  0  0  0  0  0
  -84.8831   31.3027    1.0901 C   0  0  0  0  0  0  0  0  0  0  0  0
  -85.1930   32.2826    0.1703 C   0  0  0  0  0  0  0  0  0  0  0  0
  -86.2549   32.1796   -0.7266 C   0  0  0  0  0  0  0  0  0  0  0  0
  -87.0258   31.0561   -0.6930 C   0  0  0  0  0  0  0  0  0  0  0  0
  -86.6939   30.0634    0.2548 C   0  0  0  0  0  0  0  0  0  0  0  0
  -85.6513   30.1682    1.1321 C   0  0  0  0  0  0  0  0  0  0  0  0
  -85.3148   29.1162    2.1228 C   0  0  0  0  0  0  0  0  0  0  0  0
  -86.2109   28.0611    1.8886 F   0  0  0  0  0  0  0  0  0  0  0  0
  -84.0562   28.5575    1.8857 F   0  0  0  0  0  0  0  0  0  0  0  0
  -85.4991   29.4936    3.4156 F   0  0  0  0  0  0  0  0  0  0  0  0
  -95.0478   28.3896   -4.8666 O   0  0  0  0  0  0  0  0  0  0  0  0
  -95.0075   27.0320   -5.0862 C   0  0  0  0  0  0  0  0  0  0  0  0
  -95.4126   26.1167   -4.1440 C   0  0  0  0  0  0  0  0  0  0  0  0
  -95.3553   24.7589   -4.4066 C   0  0  0  0  0  0  0  0  0  0  0  0
  -94.8909   24.2803   -5.6193 C   0  0  0  0  0  0  0  0  0  0  0  0
  -94.8368   22.9436   -5.8721 F   0  0  0  0  0  0  0  0  0  0  0  0
  -94.4860   25.2109   -6.5595 C   0  0  0  0  0  0  0  0  0  0  0  0
  -94.5482   26.5633   -6.2854 C   0  0  0  0  0  0  0  0  0  0  0  0
  -94.1277   27.4031   -7.2727 F   0  0  0  0  0  0  0  0  0  0  0  0
 15 16  1  0  0  0
 16 17  2  0  0  0
 17 18  1  0  0  0
 18 19  2  0  0  0
 19 11  1  0  0  0
 11 12  1  0  0  0
 12 13  2  0  0  0
 12  1  1  0  0  0
  1  2  2  0  0  0
  2  3  1  0  0  0
  3  4  2  0  0  0
  4  5  1  0  0  0
  5  6  1  0  0  0
  5  7  1  0  0  0
  7 26  1  0  0  0
 26 27  1  0  0  0
 27 28  2  0  0  0
 28 29  1  0  0  0
 29 30  2  0  0  0
 30 31  1  0  0  0
 30 32  1  0  0  0
 32 33  2  0  0  0
 33 34  1  0  0  0
  7  8  2  0  0  0
  8  9  1  0  0  0
  9 10  2  0  0  0
 19 20  1  0  0  0
 20 21  2  0  0  0
 21 22  1  0  0  0
 22 23  1  0  0  0
 22 24  1  0  0  0
 22 25  1  0  0  0
 21 16  1  0  0  0
 10  1  1  0  0  0
  9  4  1  0  0  0
 33 27  1  0  0  0
 11 14  1  0  0  0
M  END
> <minimizedAffinity>
-7.92558

> <CNNscore>
0.1513011456

> <CNNaffinity>
5.7799582481

> <CNN_VS>
0.8745142817

> <CNNaffinity_variance>
0.1383194029

$$$$
[H]c1c([H])c(Oc2nc3c([H])c(C(=O)N([H])c4c([H])c([H])c(C([H])([H])[H])c(C(F)(F)F)c4[H])c([H])c([H])c3n2C([H])([H])[H])c(F)c([H])c1F


 34 37  0  0  0  0  0  0  0  0999 V2000
  -88.9550   32.4894   -2.1336 C   0  0  0  0  0  0  0  0  0  0  0  0
  -87.6628   32.0976   -1.8051 C   0  0  0  0  0  0  0  0  0  0  0  0
  -87.3621   30.9459   -1.1186 C   0  0  0  0  0  0  0  0  0  0  0  0
  -88.4086   30.1357   -0.7359 C   0  0  0  0  0  0  0  0  0  0  0  0
  -88.3951   28.9616   -0.0592 N   0  0  0  0  0  0  0  0  0  0  0  0
  -87.2020   28.2761    0.4300 C   0  0  0  0  0  0  0  0  0  0  0  0
  -89.6838   28.5947    0.0492 C   0  0  0  0  0  0  0  0  0  0  0  0
  -90.4709   29.5121   -0.5413 N   0  0  0  0  0  0  0  0  0  0  0  0
  -89.6996   30.4988   -1.0478 C   0  0  0  0  0  0  0  0  0  0  0  0
  -89.9867   31.6773   -1.7486 C   0  0  0  0  0  0  0  0  0  0  0  0
  -88.1154   34.7082   -2.8375 N   0  0  0  0  0  0  0  0  0  0  0  0
  -89.1271   33.7561   -2.8684 C   0  0  0  0  0  0  0  0  0  0  0  0
  -90.1917   33.9552   -3.5137 O   0  0  0  0  0  0  0  0  0  0  0  0
  -87.2370   34.4923   -2.2671 H   0  0  0  0  0  0  0  0  0  0  0  0
  -88.2467   39.5642   -5.7797 C   0  0  0  0  0  0  0  0  0  0  0  0
  -88.2326   38.2650   -5.0826 C   0  0  0  0  0  0  0  0  0  0  0  0
  -88.0280   38.3080   -3.7193 C   0  0  0  0  0  0  0  0  0  0  0  0
  -87.9871   37.1690   -2.9170 C   0  0  0  0  0  0  0  0  0  0  0  0
  -88.1566   35.9527   -3.5080 C   0  0  0  0  0  0  0  0  0  0  0  0
  -88.3652   35.9276   -4.9044 C   0  0  0  0  0  0  0  0  0  0  0  0
  -88.4051   37.0470   -5.6874 C   0  0  0  0  0  0  0  0  0  0  0  0
  -88.6252   37.0047   -7.1541 C   0  0  0  0  0  0  0  0  0  0  0  0
  -89.1293   35.7247   -7.4344 F   0  0  0  0  0  0  0  0  0  0  0  0
  -89.6449   37.8714   -7.5555 F   0  0  0  0  0  0  0  0  0  0  0  0
  -87.4890   37.1367   -7.8886 F   0  0  0  0  0  0  0  0  0  0  0  0
  -90.0967   27.4331    0.6848 O   0  0  0  0  0  0  0  0  0  0  0  0
  -90.0315   27.2377    2.0451 C   0  0  0  0  0  0  0  0  0  0  0  0
  -89.3214   26.2062    2.6122 C   0  0  0  0  0  0  0  0  0  0  0  0
  -89.2824   26.0462    3.9866 C   0  0  0  0  0  0  0  0  0  0  0  0
  -89.9530   26.9142    4.8306 C   0  0  0  0  0  0  0  0  0  0  0  0
  -89.9110   26.7520    6.1817 F   0  0  0  0  0  0  0  0  0  0  0  0
  -90.6641   27.9482    4.2483 C   0  0  0  0  0  0  0  0  0  0  0  0
  -90.6952   28.0972    2.8754 C   0  0  0  0  0  0  0  0  0  0  0  0
  -91.4218   29.1449    2.3945 F   0  0  0  0  0  0  0  0  0  0  0  0
 15 16  1  0  0  0
 16 17  2  0  0  0
 17 18  1  0  0  0
 18 19  2  0  0  0
 19 11  1  0  0  0
 11 12  1  0  0  0
 12 13  2  0  0  0
 12  1  1  0  0  0
  1  2  2  0  0  0
  2  3  1  0  0  0
  3  4  2  0  0  0
  4  5  1  0  0  0
  5  6  1  0  0  0
  5  7  1  0  0  0
  7 26  1  0  0  0
 26 27  1  0  0  0
 27 28  2  0  0  0
 28 29  1  0  0  0
 29 30  2  0  0  0
 30 31  1  0  0  0
 30 32  1  0  0  0
 32 33  2  0  0  0
 33 34  1  0  0  0
  7  8  2  0  0  0
  8  9  1  0  0  0
  9 10  2  0  0  0
 19 20  1  0  0  0
 20 21  2  0  0  0
 21 22  1  0  0  0
 22 23  1  0  0  0
 22 24  1  0  0  0
 22 25  1  0  0  0
 21 16  1  0  0  0
 10  1  1  0  0  0
  9  4  1  0  0  0
 33 27  1  0  0  0
 11 14  1  0  0  0
M  END
> <minimizedAffinity>
-7.97566

> <CNNscore>
0.1480999440

> <CNNaffinity>
6.0390334129

> <CNN_VS>
0.8943805099

> <CNNaffinity_variance>
0.0862969905

$$$$
[H]c1c([H])c(Oc2nc3c([H])c(C(=O)N([H])c4c([H])c([H])c(C([H])([H])[H])c(C(F)(F)F)c4[H])c([H])c([H])c3n2C([H])([H])[H])c(F)c([H])c1F


 34 37  0  0  0  0  0  0  0  0999 V2000
  -88.4388   32.1145   -3.2479 C   0  0  0  0  0  0  0  0  0  0  0  0
  -87.4663   33.0548   -3.5667 C   0  0  0  0  0  0  0  0  0  0  0  0
  -86.4033   33.3642   -2.7529 C   0  0  0  0  0  0  0  0  0  0  0  0
  -86.3010   32.6992   -1.5507 C   0  0  0  0  0  0  0  0  0  0  0  0
  -85.3677   32.8091   -0.5743 N   0  0  0  0  0  0  0  0  0  0  0  0
  -84.2144   33.7047   -0.5977 C   0  0  0  0  0  0  0  0  0  0  0  0
  -85.7397   31.9363    0.3780 C   0  0  0  0  0  0  0  0  0  0  0  0
  -86.8675   31.3056    0.0039 N   0  0  0  0  0  0  0  0  0  0  0  0
  -87.2502   31.7622   -1.2085 C   0  0  0  0  0  0  0  0  0  0  0  0
  -88.3275   31.4601   -2.0515 C   0  0  0  0  0  0  0  0  0  0  0  0
  -90.7454   31.3894   -3.7742 N   0  0  0  0  0  0  0  0  0  0  0  0
  -89.5273   31.8908   -4.2169 C   0  0  0  0  0  0  0  0  0  0  0  0
  -89.3346   32.1581   -5.4338 O   0  0  0  0  0  0  0  0  0  0  0  0
  -90.8524   31.1710   -2.7329 H   0  0  0  0  0  0  0  0  0  0  0  0
  -95.1489   30.1313   -7.1330 C   0  0  0  0  0  0  0  0  0  0  0  0
  -93.9961   30.3800   -6.2479 C   0  0  0  0  0  0  0  0  0  0  0  0
  -93.7121   31.7019   -5.9753 C   0  0  0  0  0  0  0  0  0  0  0  0
  -92.6569   32.1033   -5.1580 C   0  0  0  0  0  0  0  0  0  0  0  0
  -91.8660   31.1432   -4.6011 C   0  0  0  0  0  0  0  0  0  0  0  0
  -92.1716   29.7953   -4.8907 C   0  0  0  0  0  0  0  0  0  0  0  0
  -93.2076   29.4059   -5.6924 C   0  0  0  0  0  0  0  0  0  0  0  0
  -93.5163   27.9851   -5.9877 C   0  0  0  0  0  0  0  0  0  0  0  0
  -92.4721   27.2353   -5.4234 F   0  0  0  0  0  0  0  0  0  0  0  0
  -94.6584   27.5465   -5.3128 F   0  0  0  0  0  0  0  0  0  0  0  0
  -93.5285   27.6849   -7.3135 F   0  0  0  0  0  0  0  0  0  0  0  0
  -85.0350   31.7459    1.5575 O   0  0  0  0  0  0  0  0  0  0  0  0
  -84.3856   30.5777    1.8835 C   0  0  0  0  0  0  0  0  0  0  0  0
  -85.0011   29.5521    2.5612 C   0  0  0  0  0  0  0  0  0  0  0  0
  -84.3101   28.3930    2.8693 C   0  0  0  0  0  0  0  0  0  0  0  0
  -82.9844   28.2288    2.5074 C   0  0  0  0  0  0  0  0  0  0  0  0
  -82.3097   27.0864    2.8130 F   0  0  0  0  0  0  0  0  0  0  0  0
  -82.3758   29.2675    1.8258 C   0  0  0  0  0  0  0  0  0  0  0  0
  -83.0763   30.4193    1.5242 C   0  0  0  0  0  0  0  0  0  0  0  0
  -82.3929   31.3870    0.8508 F   0  0  0  0  0  0  0  0  0  0  0  0
 15 16  1  0  0  0
 16 17  2  0  0  0
 17 18  1  0  0  0
 18 19  2  0  0  0
 19 11  1  0  0  0
 11 12  1  0  0  0
 12 13  2  0  0  0
 12  1  1  0  0  0
  1  2  2  0  0  0
  2  3  1  0  0  0
  3  4  2  0  0  0
  4  5  1  0  0  0
  5  6  1  0  0  0
  5  7  1  0  0  0
  7 26  1  0  0  0
 26 27  1  0  0  0
 27 28  2  0  0  0
 28 29  1  0  0  0
 29 30  2  0  0  0
 30 31  1  0  0  0
 30 32  1  0  0  0
 32 33  2  0  0  0
 33 34  1  0  0  0
  7  8  2  0  0  0
  8  9  1  0  0  0
  9 10  2  0  0  0
 19 20  1  0  0  0
 20 21  2  0  0  0
 21 22  1  0  0  0
 22 23  1  0  0  0
 22 24  1  0  0  0
 22 25  1  0  0  0
 21 16  1  0  0  0
 10  1  1  0  0  0
  9  4  1  0  0  0
 33 27  1  0  0  0
 11 14  1  0  0  0
M  END
> <minimizedAffinity>
-9.47615

> <CNNscore>
0.1334046870

> <CNNaffinity>
6.0645332336

> <CNN_VS>
0.8090371490

> <CNNaffinity_variance>
0.1474586278

$$$$
[H]c1c([H])c(Oc2nc3c([H])c(C(=O)N([H])c4c([H])c([H])c(C([H])([H])[H])c(C(F)(F)F)c4[H])c([H])c([H])c3n2C([H])([H])[H])c(F)c([H])c1F


 34 37  0  0  0  0  0  0  0  0999 V2000
  -87.3586   33.7508   -2.1780 C   0  0  0  0  0  0  0  0  0  0  0  0
  -86.8677   34.8838   -2.8157 C   0  0  0  0  0  0  0  0  0  0  0  0
  -87.5987   35.6460   -3.6947 C   0  0  0  0  0  0  0  0  0  0  0  0
  -88.8949   35.2586   -3.9552 C   0  0  0  0  0  0  0  0  0  0  0  0
  -89.8222   35.8205   -4.7681 N   0  0  0  0  0  0  0  0  0  0  0  0
  -89.6271   37.0188   -5.5796 C   0  0  0  0  0  0  0  0  0  0  0  0
  -90.9156   35.0467   -4.6543 C   0  0  0  0  0  0  0  0  0  0  0  0
  -90.6737   34.0376   -3.7983 N   0  0  0  0  0  0  0  0  0  0  0  0
  -89.4079   34.1400   -3.3376 C   0  0  0  0  0  0  0  0  0  0  0  0
  -88.6470   33.3751   -2.4440 C   0  0  0  0  0  0  0  0  0  0  0  0
  -86.8345   31.7842   -0.7704 N   0  0  0  0  0  0  0  0  0  0  0  0
  -86.4562   33.0271   -1.2637 C   0  0  0  0  0  0  0  0  0  0  0  0
  -85.3542   33.5490   -0.9433 O   0  0  0  0  0  0  0  0  0  0  0  0
  -87.7839   31.3917   -1.0668 H   0  0  0  0  0  0  0  0  0  0  0  0
  -83.9277   28.4170    2.7605 C   0  0  0  0  0  0  0  0  0  0  0  0
  -84.7312   29.2300    1.8291 C   0  0  0  0  0  0  0  0  0  0  0  0
  -84.2578   30.4981    1.5642 C   0  0  0  0  0  0  0  0  0  0  0  0
  -84.9007   31.3896    0.7072 C   0  0  0  0  0  0  0  0  0  0  0  0
  -86.0542   30.9897    0.1014 C   0  0  0  0  0  0  0  0  0  0  0  0
  -86.5239   29.6883    0.3839 C   0  0  0  0  0  0  0  0  0  0  0  0
  -85.8901   28.8170    1.2246 C   0  0  0  0  0  0  0  0  0  0  0  0
  -86.3961   27.4522    1.5118 C   0  0  0  0  0  0  0  0  0  0  0  0
  -87.1098   27.0543    0.3701 F   0  0  0  0  0  0  0  0  0  0  0  0
  -85.3600   26.5202    1.6118 F   0  0  0  0  0  0  0  0  0  0  0  0
  -87.2724   27.3933    2.5493 F   0  0  0  0  0  0  0  0  0  0  0  0
  -92.0982   35.2896   -5.3373 O   0  0  0  0  0  0  0  0  0  0  0  0
  -92.9235   34.2998   -5.8189 C   0  0  0  0  0  0  0  0  0  0  0  0
  -93.9931   33.8143   -5.1047 C   0  0  0  0  0  0  0  0  0  0  0  0
  -94.7984   32.8171   -5.6272 C   0  0  0  0  0  0  0  0  0  0  0  0
  -94.5552   32.2790   -6.8789 C   0  0  0  0  0  0  0  0  0  0  0  0
  -95.3507   31.2983   -7.3879 F   0  0  0  0  0  0  0  0  0  0  0  0
  -93.4762   32.7756   -7.5882 C   0  0  0  0  0  0  0  0  0  0  0  0
  -92.6800   33.7709   -7.0557 C   0  0  0  0  0  0  0  0  0  0  0  0
  -91.6409   34.1958   -7.8280 F   0  0  0  0  0  0  0  0  0  0  0  0
 15 16  1  0  0  0
 16 17  2  0  0  0
 17 18  1  0  0  0
 18 19  2  0  0  0
 19 11  1  0  0  0
 11 12  1  0  0  0
 12 13  2  0  0  0
 12  1  1  0  0  0
  1  2  2  0  0  0
  2  3  1  0  0  0
  3  4  2  0  0  0
  4  5  1  0  0  0
  5  6  1  0  0  0
  5  7  1  0  0  0
  7 26  1  0  0  0
 26 27  1  0  0  0
 27 28  2  0  0  0
 28 29  1  0  0  0
 29 30  2  0  0  0
 30 31  1  0  0  0
 30 32  1  0  0  0
 32 33  2  0  0  0
 33 34  1  0  0  0
  7  8  2  0  0  0
  8  9  1  0  0  0
  9 10  2  0  0  0
 19 20  1  0  0  0
 20 21  2  0  0  0
 21 22  1  0  0  0
 22 23  1  0  0  0
 22 24  1  0  0  0
 22 25  1  0  0  0
 21 16  1  0  0  0
 10  1  1  0  0  0
  9  4  1  0  0  0
 33 27  1  0  0  0
 11 14  1  0  0  0
M  END
> <minimizedAffinity>
-8.03549

> <CNNscore>
0.1286594570

> <CNNaffinity>
6.0569734573

> <CNN_VS>
0.7792869210

> <CNNaffinity_variance>
0.3176641166

$$$$
[H]c1c([H])c(Oc2nc3c([H])c(C(=O)N([H])c4c([H])c([H])c(C([H])([H])[H])c(C(F)(F)F)c4[H])c([H])c([H])c3n2C([H])([H])[H])c(F)c([H])c1F


 34 37  0  0  0  0  0  0  0  0999 V2000
  -88.4352   32.0077   -3.2857 C   0  0  0  0  0  0  0  0  0  0  0  0
  -87.4422   32.9224   -3.6150 C   0  0  0  0  0  0  0  0  0  0  0  0
  -86.3815   33.2300   -2.7975 C   0  0  0  0  0  0  0  0  0  0  0  0
  -86.3036   32.5900   -1.5799 C   0  0  0  0  0  0  0  0  0  0  0  0
  -85.3780   32.7041   -0.5968 N   0  0  0  0  0  0  0  0  0  0  0  0
  -84.2078   33.5774   -0.6281 C   0  0  0  0  0  0  0  0  0  0  0  0
  -85.7756   31.8597    0.3707 C   0  0  0  0  0  0  0  0  0  0  0  0
  -86.9113   31.2419   -0.0010 N   0  0  0  0  0  0  0  0  0  0  0  0
  -87.2735   31.6786   -1.2270 C   0  0  0  0  0  0  0  0  0  0  0  0
  -88.3480   31.3779   -2.0741 C   0  0  0  0  0  0  0  0  0  0  0  0
  -90.8261   32.1029   -3.9167 N   0  0  0  0  0  0  0  0  0  0  0  0
  -89.5182   31.7828   -4.2606 C   0  0  0  0  0  0  0  0  0  0  0  0
  -89.2395   31.3022   -5.3923 O   0  0  0  0  0  0  0  0  0  0  0  0
  -91.0082   32.4989   -2.9402 H   0  0  0  0  0  0  0  0  0  0  0  0
  -95.2549   31.7175   -7.4511 C   0  0  0  0  0  0  0  0  0  0  0  0
  -94.0709   31.8676   -6.5851 C   0  0  0  0  0  0  0  0  0  0  0  0
  -94.0341   31.0696   -5.4608 C   0  0  0  0  0  0  0  0  0  0  0  0
  -92.9859   31.0920   -4.5425 C   0  0  0  0  0  0  0  0  0  0  0  0
  -91.9462   31.9446   -4.7654 C   0  0  0  0  0  0  0  0  0  0  0  0
  -92.0005   32.7538   -5.9213 C   0  0  0  0  0  0  0  0  0  0  0  0
  -93.0301   32.7284   -6.8196 C   0  0  0  0  0  0  0  0  0  0  0  0
  -93.0731   33.5851   -8.0302 C   0  0  0  0  0  0  0  0  0  0  0  0
  -91.7362   33.8590   -8.3598 F   0  0  0  0  0  0  0  0  0  0  0  0
  -93.5671   32.8968   -9.1411 F   0  0  0  0  0  0  0  0  0  0  0  0
  -93.6725   34.7895   -7.8353 F   0  0  0  0  0  0  0  0  0  0  0  0
  -85.0862   31.6824    1.5612 O   0  0  0  0  0  0  0  0  0  0  0  0
  -84.4625   30.5097    1.9196 C   0  0  0  0  0  0  0  0  0  0  0  0
  -85.1054   29.5093    2.6093 C   0  0  0  0  0  0  0  0  0  0  0  0
  -84.4398   28.3446    2.9501 C   0  0  0  0  0  0  0  0  0  0  0  0
  -83.1126   28.1494    2.6099 C   0  0  0  0  0  0  0  0  0  0  0  0
  -82.4629   27.0016    2.9478 F   0  0  0  0  0  0  0  0  0  0  0  0
  -82.4762   29.1630    1.9160 C   0  0  0  0  0  0  0  0  0  0  0  0
  -83.1515   30.3207    1.5816 C   0  0  0  0  0  0  0  0  0  0  0  0
  -82.4417   31.2621    0.8984 F   0  0  0  0  0  0  0  0  0  0  0  0
 15 16  1  0  0  0
 16 17  2  0  0  0
 17 18  1  0  0  0
 18 19  2  0  0  0
 19 11  1  0  0  0
 11 12  1  0  0  0
 12 13  2  0  0  0
 12  1  1  0  0  0
  1  2  2  0  0  0
  2  3  1  0  0  0
  3  4  2  0  0  0
  4  5  1  0  0  0
  5  6  1  0  0  0
  5  7  1  0  0  0
  7 26  1  0  0  0
 26 27  1  0  0  0
 27 28  2  0  0  0
 28 29  1  0  0  0
 29 30  2  0  0  0
 30 31  1  0  0  0
 30 32  1  0  0  0
 32 33  2  0  0  0
 33 34  1  0  0  0
  7  8  2  0  0  0
  8  9  1  0  0  0
  9 10  2  0  0  0
 19 20  1  0  0  0
 20 21  2  0  0  0
 21 22  1  0  0  0
 22 23  1  0  0  0
 22 24  1  0  0  0
 22 25  1  0  0  0
 21 16  1  0  0  0
 10  1  1  0  0  0
  9  4  1  0  0  0
 33 27  1  0  0  0
 11 14  1  0  0  0
M  END
> <minimizedAffinity>
-9.09315

> <CNNscore>
0.1269365549

> <CNNaffinity>
6.1075134277

> <CNN_VS>
0.7752667069

> <CNNaffinity_variance>
0.1157504320

$$$$
[H]c1c([H])c(Oc2nc3c([H])c(C(=O)N([H])c4c([H])c([H])c(C([H])([H])[H])c(C(F)(F)F)c4[H])c([H])c([H])c3n2C([H])([H])[H])c(F)c([H])c1F


 34 37  0  0  0  0  0  0  0  0999 V2000
  -90.0554   31.4507   -2.5408 C   0  0  0  0  0  0  0  0  0  0  0  0
  -91.0449   30.4988   -2.7557 C   0  0  0  0  0  0  0  0  0  0  0  0
  -91.9711   30.5709   -3.7681 C   0  0  0  0  0  0  0  0  0  0  0  0
  -91.9100   31.6540   -4.6173 C   0  0  0  0  0  0  0  0  0  0  0  0
  -92.6883   31.9680   -5.6812 N   0  0  0  0  0  0  0  0  0  0  0  0
  -93.8140   31.1786   -6.1735 C   0  0  0  0  0  0  0  0  0  0  0  0
  -92.1991   33.1272   -6.1545 C   0  0  0  0  0  0  0  0  0  0  0  0
  -91.1510   33.5192   -5.4077 N   0  0  0  0  0  0  0  0  0  0  0  0
  -90.9400   32.6129   -4.4283 C   0  0  0  0  0  0  0  0  0  0  0  0
  -90.0040   32.5222   -3.3901 C   0  0  0  0  0  0  0  0  0  0  0  0
  -88.2780   30.1497   -1.4132 N   0  0  0  0  0  0  0  0  0  0  0  0
  -89.1330   31.2451   -1.4090 C   0  0  0  0  0  0  0  0  0  0  0  0
  -89.1356   32.0679   -0.4538 O   0  0  0  0  0  0  0  0  0  0  0  0
  -88.3234   29.4778   -2.2438 H   0  0  0  0  0  0  0  0  0  0  0  0
  -84.3340   29.1236    2.5424 C   0  0  0  0  0  0  0  0  0  0  0  0
  -85.3190   29.4569    1.4970 C   0  0  0  0  0  0  0  0  0  0  0  0
  -86.4137   28.6231    1.4042 C   0  0  0  0  0  0  0  0  0  0  0  0
  -87.4325   28.8017    0.4699 C   0  0  0  0  0  0  0  0  0  0  0  0
  -87.3429   29.8510   -0.3952 C   0  0  0  0  0  0  0  0  0  0  0  0
  -86.2156   30.6944   -0.2856 C   0  0  0  0  0  0  0  0  0  0  0  0
  -85.2190   30.5160    0.6324 C   0  0  0  0  0  0  0  0  0  0  0  0
  -84.0401   31.4109    0.7354 C   0  0  0  0  0  0  0  0  0  0  0  0
  -84.4232   32.6271    0.1480 F   0  0  0  0  0  0  0  0  0  0  0  0
  -83.7510   31.7452    2.0609 F   0  0  0  0  0  0  0  0  0  0  0  0
  -82.9538   30.9779    0.0423 F   0  0  0  0  0  0  0  0  0  0  0  0
  -92.7276   33.7879   -7.2536 O   0  0  0  0  0  0  0  0  0  0  0  0
  -92.2614   34.9950   -7.7208 C   0  0  0  0  0  0  0  0  0  0  0  0
  -92.7455   36.2005   -7.2711 C   0  0  0  0  0  0  0  0  0  0  0  0
  -92.2477   37.3924   -7.7685 C   0  0  0  0  0  0  0  0  0  0  0  0
  -91.2519   37.4103   -8.7294 C   0  0  0  0  0  0  0  0  0  0  0  0
  -90.7661   38.5858   -9.2150 F   0  0  0  0  0  0  0  0  0  0  0  0
  -90.7727   36.1911   -9.1742 C   0  0  0  0  0  0  0  0  0  0  0  0
  -91.2777   35.0084   -8.6699 C   0  0  0  0  0  0  0  0  0  0  0  0
  -90.7436   33.8583   -9.1688 F   0  0  0  0  0  0  0  0  0  0  0  0
 15 16  1  0  0  0
 16 17  2  0  0  0
 17 18  1  0  0  0
 18 19  2  0  0  0
 19 11  1  0  0  0
 11 12  1  0  0  0
 12 13  2  0  0  0
 12  1  1  0  0  0
  1  2  2  0  0  0
  2  3  1  0  0  0
  3  4  2  0  0  0
  4  5  1  0  0  0
  5  6  1  0  0  0
  5  7  1  0  0  0
  7 26  1  0  0  0
 26 27  1  0  0  0
 27 28  2  0  0  0
 28 29  1  0  0  0
 29 30  2  0  0  0
 30 31  1  0  0  0
 30 32  1  0  0  0
 32 33  2  0  0  0
 33 34  1  0  0  0
  7  8  2  0  0  0
  8  9  1  0  0  0
  9 10  2  0  0  0
 19 20  1  0  0  0
 20 21  2  0  0  0
 21 22  1  0  0  0
 22 23  1  0  0  0
 22 24  1  0  0  0
 22 25  1  0  0  0
 21 16  1  0  0  0
 10  1  1  0  0  0
  9  4  1  0  0  0
 33 27  1  0  0  0
 11 14  1  0  0  0
M  END
> <minimizedAffinity>
-8.04379

> <CNNscore>
0.1229605451

> <CNNaffinity>
5.6864337921

> <CNN_VS>
0.6992070079

> <CNNaffinity_variance>
0.1021016985

$$$$
[H]c1c([H])c(Oc2nc3c([H])c(C(=O)N([H])c4c([H])c([H])c(C([H])([H])[H])c(C(F)(F)F)c4[H])c([H])c([H])c3n2C([H])([H])[H])c(F)c([H])c1F


 34 37  0  0  0  0  0  0  0  0999 V2000
  -89.2869   31.7407   -4.1774 C   0  0  0  0  0  0  0  0  0  0  0  0
  -88.0800   31.0535   -4.1264 C   0  0  0  0  0  0  0  0  0  0  0  0
  -87.8599   29.9482   -3.3403 C   0  0  0  0  0  0  0  0  0  0  0  0
  -88.9017   29.4995   -2.5584 C   0  0  0  0  0  0  0  0  0  0  0  0
  -88.9560   28.4493   -1.7036 N   0  0  0  0  0  0  0  0  0  0  0  0
  -87.8604   27.5262   -1.4204 C   0  0  0  0  0  0  0  0  0  0  0  0
  -90.2028   28.4593   -1.2012 C   0  0  0  0  0  0  0  0  0  0  0  0
  -90.8991   29.4828   -1.7278 N   0  0  0  0  0  0  0  0  0  0  0  0
  -90.1091   30.1608   -2.5887 C   0  0  0  0  0  0  0  0  0  0  0  0
  -90.3147   31.2864   -3.3968 C   0  0  0  0  0  0  0  0  0  0  0  0
  -90.5257   33.1193   -5.8170 N   0  0  0  0  0  0  0  0  0  0  0  0
  -89.3759   32.9157   -5.0636 C   0  0  0  0  0  0  0  0  0  0  0  0
  -88.4050   33.7177   -5.1240 O   0  0  0  0  0  0  0  0  0  0  0  0
  -91.3156   32.4032   -5.7351 H   0  0  0  0  0  0  0  0  0  0  0  0
  -91.4476   37.6590   -9.1026 C   0  0  0  0  0  0  0  0  0  0  0  0
  -91.2013   36.5295   -8.1873 C   0  0  0  0  0  0  0  0  0  0  0  0
  -91.0891   35.2856   -8.7723 C   0  0  0  0  0  0  0  0  0  0  0  0
  -90.8568   34.1186   -8.0463 C   0  0  0  0  0  0  0  0  0  0  0  0
  -90.7354   34.2104   -6.6919 C   0  0  0  0  0  0  0  0  0  0  0  0
  -90.8528   35.4918   -6.1103 C   0  0  0  0  0  0  0  0  0  0  0  0
  -91.0801   36.6337   -6.8259 C   0  0  0  0  0  0  0  0  0  0  0  0
  -91.2011   37.9735   -6.2002 C   0  0  0  0  0  0  0  0  0  0  0  0
  -90.1459   38.7409   -6.7184 F   0  0  0  0  0  0  0  0  0  0  0  0
  -92.3526   38.6447   -6.6194 F   0  0  0  0  0  0  0  0  0  0  0  0
  -91.0436   37.9705   -4.8500 F   0  0  0  0  0  0  0  0  0  0  0  0
  -90.6621   27.5317   -0.2779 O   0  0  0  0  0  0  0  0  0  0  0  0
  -90.5564   27.6882    1.0849 C   0  0  0  0  0  0  0  0  0  0  0  0
  -91.2306   28.6692    1.7725 C   0  0  0  0  0  0  0  0  0  0  0  0
  -91.0955   28.7914    3.1447 C   0  0  0  0  0  0  0  0  0  0  0  0
  -90.2820   27.9349    3.8659 C   0  0  0  0  0  0  0  0  0  0  0  0
  -90.1529   28.0597    5.2154 F   0  0  0  0  0  0  0  0  0  0  0  0
  -89.6087   26.9517    3.1630 C   0  0  0  0  0  0  0  0  0  0  0  0
  -89.7519   26.8402    1.7937 C   0  0  0  0  0  0  0  0  0  0  0  0
  -89.0493   25.8415    1.1889 F   0  0  0  0  0  0  0  0  0  0  0  0
 15 16  1  0  0  0
 16 17  2  0  0  0
 17 18  1  0  0  0
 18 19  2  0  0  0
 19 11  1  0  0  0
 11 12  1  0  0  0
 12 13  2  0  0  0
 12  1  1  0  0  0
  1  2  2  0  0  0
  2  3  1  0  0  0
  3  4  2  0  0  0
  4  5  1  0  0  0
  5  6  1  0  0  0
  5  7  1  0  0  0
  7 26  1  0  0  0
 26 27  1  0  0  0
 27 28  2  0  0  0
 28 29  1  0  0  0
 29 30  2  0  0  0
 30 31  1  0  0  0
 30 32  1  0  0  0
 32 33  2  0  0  0
 33 34  1  0  0  0
  7  8  2  0  0  0
  8  9  1  0  0  0
  9 10  2  0  0  0
 19 20  1  0  0  0
 20 21  2  0  0  0
 21 22  1  0  0  0
 22 23  1  0  0  0
 22 24  1  0  0  0
 22 25  1  0  0  0
 21 16  1  0  0  0
 10  1  1  0  0  0
  9  4  1  0  0  0
 33 27  1  0  0  0
 11 14  1  0  0  0
M  END
> <minimizedAffinity>
-7.46326

> <CNNscore>
0.1204820573

> <CNNaffinity>
5.6507506371

> <CNN_VS>
0.6808140874

> <CNNaffinity_variance>
0.0550229363

$$$$
[H]Oc1c([H])c([H])c([H])c(-c2nn([C@@]3([H])C([H])([H])N(S(=O)(=O)c4c([H])c([H])c([H])c([H])c4[H])C([H])([H])C([H])([H])C3([H])[H])c3nc([H])nc(N([H])[H])c23)c1[H]


 35 39  0  0  0  0  0  0  0  0999 V2000
  -85.0716   30.5693    0.4036 C   0  0  0  0  0  0  0  0  0  0  0  0
  -86.3133   30.4555   -0.1783 N   0  0  0  0  0  0  0  0  0  0  0  0
  -86.5851   31.5321   -0.8690 N   0  0  0  0  0  0  0  0  0  0  0  0
  -85.5457   32.3855   -0.7710 C   0  0  0  0  0  0  0  0  0  0  0  0
  -85.2895   33.6025   -1.2753 N   0  0  0  0  0  0  0  0  0  0  0  0
  -84.1280   34.2124   -1.0058 C   0  0  0  0  0  0  0  0  0  0  0  0
  -83.1857   33.6533   -0.2390 N   0  0  0  0  0  0  0  0  0  0  0  0
  -83.3732   32.4245    0.3065 C   0  0  0  0  0  0  0  0  0  0  0  0
  -82.3565   31.8295    1.0874 N   0  0  0  0  0  0  0  0  0  0  0  0
  -84.5815   31.7815    0.0334 C   0  0  0  0  0  0  0  0  0  0  0  0
  -82.1994   32.1582    2.0497 H   0  0  0  0  0  0  0  0  0  0  0  0
  -81.7845   31.0745    0.6860 H   0  0  0  0  0  0  0  0  0  0  0  0
  -85.6141   26.2815    2.6018 O   0  0  0  0  0  0  0  0  0  0  0  0
  -84.8119   27.3709    2.2800 C   0  0  0  0  0  0  0  0  0  0  0  0
  -83.5059   27.3648    2.7327 C   0  0  0  0  0  0  0  0  0  0  0  0
  -82.6917   28.4323    2.4276 C   0  0  0  0  0  0  0  0  0  0  0  0
  -83.2005   29.4719    1.6827 C   0  0  0  0  0  0  0  0  0  0  0  0
  -84.4811   29.5159    1.2170 C   0  0  0  0  0  0  0  0  0  0  0  0
  -85.2879   28.4201    1.5406 C   0  0  0  0  0  0  0  0  0  0  0  0
  -86.5889   26.2443    2.2869 H   0  0  0  0  0  0  0  0  0  0  0  0
  -87.7899   31.8330   -1.6431 C   0  0  0  0  0  0  0  0  0  0  0  0
  -88.9249   32.2540   -0.7793 C   0  0  0  0  0  0  0  0  0  0  0  0
  -90.0763   31.2832   -0.7693 C   0  0  0  0  0  0  0  0  0  0  0  0
  -90.5119   30.8358   -2.1175 C   0  0  0  0  0  0  0  0  0  0  0  0
  -89.4623   30.7315   -3.0669 N   0  0  0  0  0  0  0  0  0  0  0  0
  -88.1368   30.6898   -2.5681 C   0  0  0  0  0  0  0  0  0  0  0  0
  -89.6774   31.6512   -4.4864 S   0  0  0  0  0  0  0  0  0  0  0  0
  -91.1189   31.6330   -4.9058 O   0  0  0  0  0  0  0  0  0  0  0  0
  -88.8782   31.1259   -5.6445 O   0  0  0  0  0  0  0  0  0  0  0  0
  -89.2277   33.3278   -4.2738 C   0  0  0  0  0  0  0  0  0  0  0  0
  -90.1068   34.2657   -3.7638 C   0  0  0  0  0  0  0  0  0  0  0  0
  -89.7098   35.5818   -3.6131 C   0  0  0  0  0  0  0  0  0  0  0  0
  -88.4530   36.0122   -3.9544 C   0  0  0  0  0  0  0  0  0  0  0  0
  -87.5756   35.0820   -4.4621 C   0  0  0  0  0  0  0  0  0  0  0  0
  -87.9669   33.7528   -4.6177 C   0  0  0  0  0  0  0  0  0  0  0  0
 13 14  1  0  0  0
 14 15  2  0  0  0
 15 16  1  0  0  0
 16 17  2  0  0  0
 17 18  1  0  0  0
 18 19  2  0  0  0
 18  1  1  0  0  0
  1  2  2  0  0  0
  2  3  1  0  0  0
  3 21  1  0  0  0
 21 22  1  0  0  0
 22 23  1  0  0  0
 23 24  1  0  0  0
 24 25  1  0  0  0
 25 26  1  0  0  0
 25 27  1  0  0  0
 27 28  2  0  0  0
 27 29  2  0  0  0
 27 30  1  0  0  0
 30 31  2  0  0  0
 31 32  1  0  0  0
 32 33  2  0  0  0
 33 34  1  0  0  0
 34 35  2  0  0  0
  3  4  1  0  0  0
  4  5  2  0  0  0
  5  6  1  0  0  0
  6  7  2  0  0  0
  7  8  1  0  0  0
  8  9  1  0  0  0
  8 10  2  0  0  0
 19 14  1  0  0  0
 10  1  1  0  0  0
 26 21  1  0  0  0
 35 30  1  0  0  0
 10  4  1  0  0  0
 13 20  1  0  0  0
  9 11  1  0  0  0
  9 12  1  0  0  0
M  END
> <minimizedAffinity>
-9.48046

> <CNNscore>
0.9066295028

> <CNNaffinity>
7.6505103111

> <CNN_VS>
6.9361782074

> <CNNaffinity_variance>
0.0952487513

$$$$
[H]Oc1c([H])c([H])c([H])c(-c2nn([C@@]3([H])C([H])([H])N(S(=O)(=O)c4c([H])c([H])c([H])c([H])c4[H])C([H])([H])C([H])([H])C3([H])[H])c3nc([H])nc(N([H])[H])c23)c1[H]


 35 39  0  0  0  0  0  0  0  0999 V2000
  -85.9973   30.4788   -0.1706 C   0  0  0  0  0  0  0  0  0  0  0  0
  -87.0759   29.7464   -0.6104 N   0  0  0  0  0  0  0  0  0  0  0  0
  -87.8510   30.4922   -1.3541 N   0  0  0  0  0  0  0  0  0  0  0  0
  -87.3191   31.7288   -1.4330 C   0  0  0  0  0  0  0  0  0  0  0  0
  -87.6813   32.8600   -2.0575 N   0  0  0  0  0  0  0  0  0  0  0  0
  -86.9196   33.9572   -1.9593 C   0  0  0  0  0  0  0  0  0  0  0  0
  -85.7855   33.9815   -1.2510 N   0  0  0  0  0  0  0  0  0  0  0  0
  -85.3548   32.8759   -0.5916 C   0  0  0  0  0  0  0  0  0  0  0  0
  -84.1375   32.9038    0.1258 N   0  0  0  0  0  0  0  0  0  0  0  0
  -86.1429   31.7278   -0.6860 C   0  0  0  0  0  0  0  0  0  0  0  0
  -84.0977   33.3799    1.0371 H   0  0  0  0  0  0  0  0  0  0  0  0
  -83.3044   32.4482   -0.2701 H   0  0  0  0  0  0  0  0  0  0  0  0
  -84.5145   26.8446    2.6763 O   0  0  0  0  0  0  0  0  0  0  0  0
  -84.2604   28.0647    2.0596 C   0  0  0  0  0  0  0  0  0  0  0  0
  -83.0194   28.6403    2.2578 C   0  0  0  0  0  0  0  0  0  0  0  0
  -82.7438   29.8487    1.6582 C   0  0  0  0  0  0  0  0  0  0  0  0
  -83.7094   30.4470    0.8810 C   0  0  0  0  0  0  0  0  0  0  0  0
  -84.9440   29.9125    0.6599 C   0  0  0  0  0  0  0  0  0  0  0  0
  -85.1995   28.6852    1.2801 C   0  0  0  0  0  0  0  0  0  0  0  0
  -85.4213   26.3818    2.5566 H   0  0  0  0  0  0  0  0  0  0  0  0
  -89.0988   30.1199   -2.0218 C   0  0  0  0  0  0  0  0  0  0  0  0
  -88.9610   30.0959   -3.5023 C   0  0  0  0  0  0  0  0  0  0  0  0
  -89.7704   31.1524   -4.2073 C   0  0  0  0  0  0  0  0  0  0  0  0
  -91.1848   31.2399   -3.7604 C   0  0  0  0  0  0  0  0  0  0  0  0
  -91.3834   30.9478   -2.3860 N   0  0  0  0  0  0  0  0  0  0  0  0
  -90.2447   30.9808   -1.5436 C   0  0  0  0  0  0  0  0  0  0  0  0
  -92.4889   29.6897   -2.0667 S   0  0  0  0  0  0  0  0  0  0  0  0
  -93.8540   30.2522   -1.7939 O   0  0  0  0  0  0  0  0  0  0  0  0
  -92.1054   28.8710   -0.8674 O   0  0  0  0  0  0  0  0  0  0  0  0
  -92.6513   28.5824   -3.4107 C   0  0  0  0  0  0  0  0  0  0  0  0
  -93.4179   28.8825   -4.5219 C   0  0  0  0  0  0  0  0  0  0  0  0
  -93.5195   27.9770   -5.5622 C   0  0  0  0  0  0  0  0  0  0  0  0
  -92.8795   26.7640   -5.5436 C   0  0  0  0  0  0  0  0  0  0  0  0
  -92.1160   26.4619   -4.4397 C   0  0  0  0  0  0  0  0  0  0  0  0
  -92.0075   27.3686   -3.3860 C   0  0  0  0  0  0  0  0  0  0  0  0
 13 14  1  0  0  0
 14 15  2  0  0  0
 15 16  1  0  0  0
 16 17  2  0  0  0
 17 18  1  0  0  0
 18 19  2  0  0  0
 18  1  1  0  0  0
  1  2  2  0  0  0
  2  3  1  0  0  0
  3 21  1  0  0  0
 21 22  1  0  0  0
 22 23  1  0  0  0
 23 24  1  0  0  0
 24 25  1  0  0  0
 25 26  1  0  0  0
 25 27  1  0  0  0
 27 28  2  0  0  0
 27 29  2  0  0  0
 27 30  1  0  0  0
 30 31  2  0  0  0
 31 32  1  0  0  0
 32 33  2  0  0  0
 33 34  1  0  0  0
 34 35  2  0  0  0
  3  4  1  0  0  0
  4  5  2  0  0  0
  5  6  1  0  0  0
  6  7  2  0  0  0
  7  8  1  0  0  0
  8  9  1  0  0  0
  8 10  2  0  0  0
 19 14  1  0  0  0
 10  1  1  0  0  0
 26 21  1  0  0  0
 35 30  1  0  0  0
 10  4  1  0  0  0
 13 20  1  0  0  0
  9 11  1  0  0  0
  9 12  1  0  0  0
M  END
> <minimizedAffinity>
-9.47798

> <CNNscore>
0.4646762311

> <CNNaffinity>
6.9474287033

> <CNN_VS>
3.2283051014

> <CNNaffinity_variance>
0.3126971126

$$$$
[H]Oc1c([H])c([H])c([H])c(-c2nn([C@@]3([H])C([H])([H])N(S(=O)(=O)c4c([H])c([H])c([H])c([H])c4[H])C([H])([H])C([H])([H])C3([H])[H])c3nc([H])nc(N([H])[H])c23)c1[H]


 35 39  0  0  0  0  0  0  0  0999 V2000
  -85.9287   30.4638    0.1320 C   0  0  0  0  0  0  0  0  0  0  0  0
  -87.1010   29.7868   -0.1144 N   0  0  0  0  0  0  0  0  0  0  0  0
  -87.9111   30.5344   -0.8179 N   0  0  0  0  0  0  0  0  0  0  0  0
  -87.3110   31.7174   -1.0601 C   0  0  0  0  0  0  0  0  0  0  0  0
  -87.6715   32.8251   -1.7264 N   0  0  0  0  0  0  0  0  0  0  0  0
  -86.8312   33.8646   -1.8096 C   0  0  0  0  0  0  0  0  0  0  0  0
  -85.6181   33.8526   -1.2468 N   0  0  0  0  0  0  0  0  0  0  0  0
  -85.1837   32.7676   -0.5562 C   0  0  0  0  0  0  0  0  0  0  0  0
  -83.8868   32.7534    0.0054 N   0  0  0  0  0  0  0  0  0  0  0  0
  -86.0531   31.6798   -0.4619 C   0  0  0  0  0  0  0  0  0  0  0  0
  -83.7010   33.2897    0.8637 H   0  0  0  0  0  0  0  0  0  0  0  0
  -83.1427   32.2077   -0.4492 H   0  0  0  0  0  0  0  0  0  0  0  0
  -84.2556   26.7710    2.7920 O   0  0  0  0  0  0  0  0  0  0  0  0
  -84.0430   28.0031    2.1832 C   0  0  0  0  0  0  0  0  0  0  0  0
  -82.7895   28.5730    2.3035 C   0  0  0  0  0  0  0  0  0  0  0  0
  -82.5543   29.7929    1.7100 C   0  0  0  0  0  0  0  0  0  0  0  0
  -83.5714   30.4080    1.0161 C   0  0  0  0  0  0  0  0  0  0  0  0
  -84.8201   29.8796    0.8734 C   0  0  0  0  0  0  0  0  0  0  0  0
  -85.0339   28.6403    1.4856 C   0  0  0  0  0  0  0  0  0  0  0  0
  -85.1699   26.3120    2.7282 H   0  0  0  0  0  0  0  0  0  0  0  0
  -89.2551   30.2120   -1.2986 C   0  0  0  0  0  0  0  0  0  0  0  0
  -90.0864   29.5580   -0.2533 C   0  0  0  0  0  0  0  0  0  0  0  0
  -90.4415   28.1275   -0.5632 C   0  0  0  0  0  0  0  0  0  0  0  0
  -90.9650   27.9104   -1.9367 C   0  0  0  0  0  0  0  0  0  0  0  0
  -90.4006   28.7641   -2.9198 N   0  0  0  0  0  0  0  0  0  0  0  0
  -89.1934   29.4277   -2.5885 C   0  0  0  0  0  0  0  0  0  0  0  0
  -91.5252   29.6951   -3.8005 S   0  0  0  0  0  0  0  0  0  0  0  0
  -92.7330   29.9877   -2.9580 O   0  0  0  0  0  0  0  0  0  0  0  0
  -92.0133   28.9974   -5.0377 O   0  0  0  0  0  0  0  0  0  0  0  0
  -90.8699   31.2354   -4.3073 C   0  0  0  0  0  0  0  0  0  0  0  0
  -89.5782   31.3636   -4.7844 C   0  0  0  0  0  0  0  0  0  0  0  0
  -89.0999   32.6014   -5.1736 C   0  0  0  0  0  0  0  0  0  0  0  0
  -89.8658   33.7373   -5.1073 C   0  0  0  0  0  0  0  0  0  0  0  0
  -91.1514   33.6138   -4.6332 C   0  0  0  0  0  0  0  0  0  0  0  0
  -91.6424   32.3699   -4.2383 C   0  0  0  0  0  0  0  0  0  0  0  0
 13 14  1  0  0  0
 14 15  2  0  0  0
 15 16  1  0  0  0
 16 17  2  0  0  0
 17 18  1  0  0  0
 18 19  2  0  0  0
 18  1  1  0  0  0
  1  2  2  0  0  0
  2  3  1  0  0  0
  3 21  1  0  0  0
 21 22  1  0  0  0
 22 23  1  0  0  0
 23 24  1  0  0  0
 24 25  1  0  0  0
 25 26  1  0  0  0
 25 27  1  0  0  0
 27 28  2  0  0  0
 27 29  2  0  0  0
 27 30  1  0  0  0
 30 31  2  0  0  0
 31 32  1  0  0  0
 32 33  2  0  0  0
 33 34  1  0  0  0
 34 35  2  0  0  0
  3  4  1  0  0  0
  4  5  2  0  0  0
  5  6  1  0  0  0
  6  7  2  0  0  0
  7  8  1  0  0  0
  8  9  1  0  0  0
  8 10  2  0  0  0
 19 14  1  0  0  0
 10  1  1  0  0  0
 26 21  1  0  0  0
 35 30  1  0  0  0
 10  4  1  0  0  0
 13 20  1  0  0  0
  9 11  1  0  0  0
  9 12  1  0  0  0
M  END
> <minimizedAffinity>
-9.94700

> <CNNscore>
0.4566139877

> <CNNaffinity>
7.0441370010

> <CNN_VS>
3.2164514065

> <CNNaffinity_variance>
0.3752701581

$$$$
[H]Oc1c([H])c([H])c([H])c(-c2nn([C@@]3([H])C([H])([H])N(S(=O)(=O)c4c([H])c([H])c([H])c([H])c4[H])C([H])([H])C([H])([H])C3([H])[H])c3nc([H])nc(N([H])[H])c23)c1[H]


 35 39  0  0  0  0  0  0  0  0999 V2000
  -86.8591   30.3899   -0.4278 C   0  0  0  0  0  0  0  0  0  0  0  0
  -87.8564   31.0295   -1.1276 N   0  0  0  0  0  0  0  0  0  0  0  0
  -87.4612   32.2252   -1.4797 N   0  0  0  0  0  0  0  0  0  0  0  0
  -86.2036   32.4168   -1.0323 C   0  0  0  0  0  0  0  0  0  0  0  0
  -85.3299   33.4319   -1.1167 N   0  0  0  0  0  0  0  0  0  0  0  0
  -84.1126   33.3201   -0.5696 C   0  0  0  0  0  0  0  0  0  0  0  0
  -83.7141   32.2172    0.0734 N   0  0  0  0  0  0  0  0  0  0  0  0
  -84.5428   31.1495    0.1997 C   0  0  0  0  0  0  0  0  0  0  0  0
  -84.0989   29.9768    0.8518 N   0  0  0  0  0  0  0  0  0  0  0  0
  -85.8145   31.2570   -0.3653 C   0  0  0  0  0  0  0  0  0  0  0  0
  -84.0341   29.9622    1.8786 H   0  0  0  0  0  0  0  0  0  0  0  0
  -83.8452   29.1507    0.2937 H   0  0  0  0  0  0  0  0  0  0  0  0
  -87.6162   25.7006   -1.4018 O   0  0  0  0  0  0  0  0  0  0  0  0
  -87.3656   26.7076   -0.4760 C   0  0  0  0  0  0  0  0  0  0  0  0
  -87.2385   26.3447    0.8516 C   0  0  0  0  0  0  0  0  0  0  0  0
  -86.9907   27.3237    1.7875 C   0  0  0  0  0  0  0  0  0  0  0  0
  -86.8772   28.6319    1.3750 C   0  0  0  0  0  0  0  0  0  0  0  0
  -86.9950   29.0309    0.0767 C   0  0  0  0  0  0  0  0  0  0  0  0
  -87.2469   28.0180   -0.8544 C   0  0  0  0  0  0  0  0  0  0  0  0
  -87.7177   25.9245   -2.3969 H   0  0  0  0  0  0  0  0  0  0  0  0
  -88.2000   33.2398   -2.2322 C   0  0  0  0  0  0  0  0  0  0  0  0
  -89.6253   32.8662   -2.4335 C   0  0  0  0  0  0  0  0  0  0  0  0
  -89.9902   32.6059   -3.8713 C   0  0  0  0  0  0  0  0  0  0  0  0
  -89.5282   33.6524   -4.8195 C   0  0  0  0  0  0  0  0  0  0  0  0
  -88.2954   34.2597   -4.4656 N   0  0  0  0  0  0  0  0  0  0  0  0
  -87.4864   33.5839   -3.5187 C   0  0  0  0  0  0  0  0  0  0  0  0
  -88.3459   35.9560   -4.3013 S   0  0  0  0  0  0  0  0  0  0  0  0
  -87.3864   36.4054   -3.2374 O   0  0  0  0  0  0  0  0  0  0  0  0
  -89.7044   36.4603   -3.9066 O   0  0  0  0  0  0  0  0  0  0  0  0
  -87.9009   36.7860   -5.7749 C   0  0  0  0  0  0  0  0  0  0  0  0
  -86.6937   37.4470   -5.9105 C   0  0  0  0  0  0  0  0  0  0  0  0
  -86.3824   38.0914   -7.0938 C   0  0  0  0  0  0  0  0  0  0  0  0
  -87.2364   38.1067   -8.1670 C   0  0  0  0  0  0  0  0  0  0  0  0
  -88.4384   37.4502   -8.0359 C   0  0  0  0  0  0  0  0  0  0  0  0
  -88.7609   36.7976   -6.8467 C   0  0  0  0  0  0  0  0  0  0  0  0
 13 14  1  0  0  0
 14 15  2  0  0  0
 15 16  1  0  0  0
 16 17  2  0  0  0
 17 18  1  0  0  0
 18 19  2  0  0  0
 18  1  1  0  0  0
  1  2  2  0  0  0
  2  3  1  0  0  0
  3 21  1  0  0  0
 21 22  1  0  0  0
 22 23  1  0  0  0
 23 24  1  0  0  0
 24 25  1  0  0  0
 25 26  1  0  0  0
 25 27  1  0  0  0
 27 28  2  0  0  0
 27 29  2  0  0  0
 27 30  1  0  0  0
 30 31  2  0  0  0
 31 32  1  0  0  0
 32 33  2  0  0  0
 33 34  1  0  0  0
 34 35  2  0  0  0
  3  4  1  0  0  0
  4  5  2  0  0  0
  5  6  1  0  0  0
  6  7  2  0  0  0
  7  8  1  0  0  0
  8  9  1  0  0  0
  8 10  2  0  0  0
 19 14  1  0  0  0
 10  1  1  0  0  0
 26 21  1  0  0  0
 35 30  1  0  0  0
 10  4  1  0  0  0
 13 20  1  0  0  0
  9 11  1  0  0  0
  9 12  1  0  0  0
M  END
> <minimizedAffinity>
-8.68867

> <CNNscore>
0.2899191380

> <CNNaffinity>
6.5855760574

> <CNN_VS>
1.9092845917

> <CNNaffinity_variance>
0.3201655746

$$$$
[H]Oc1c([H])c([H])c([H])c(-c2nn([C@@]3([H])C([H])([H])N(S(=O)(=O)c4c([H])c([H])c([H])c([H])c4[H])C([H])([H])C([H])([H])C3([H])[H])c3nc([H])nc(N([H])[H])c23)c1[H]


 35 39  0  0  0  0  0  0  0  0999 V2000
  -87.7367   31.5679   -1.6551 C   0  0  0  0  0  0  0  0  0  0  0  0
  -88.4614   30.4589   -1.2832 N   0  0  0  0  0  0  0  0  0  0  0  0
  -87.9070   29.8885   -0.2453 N   0  0  0  0  0  0  0  0  0  0  0  0
  -86.8102   30.5913    0.1030 C   0  0  0  0  0  0  0  0  0  0  0  0
  -85.8938   30.4656    1.0753 N   0  0  0  0  0  0  0  0  0  0  0  0
  -84.8971   31.3541    1.1804 C   0  0  0  0  0  0  0  0  0  0  0  0
  -84.7670   32.3880    0.3421 N   0  0  0  0  0  0  0  0  0  0  0  0
  -85.6551   32.5803   -0.6663 C   0  0  0  0  0  0  0  0  0  0  0  0
  -85.5267   33.6954   -1.5251 N   0  0  0  0  0  0  0  0  0  0  0  0
  -86.6963   31.6585   -0.7856 C   0  0  0  0  0  0  0  0  0  0  0  0
  -84.8017   33.6913   -2.2552 H   0  0  0  0  0  0  0  0  0  0  0  0
  -86.1589   34.4990   -1.4115 H   0  0  0  0  0  0  0  0  0  0  0  0
  -90.3263   35.3587   -3.2158 O   0  0  0  0  0  0  0  0  0  0  0  0
  -89.4266   34.3315   -3.4787 C   0  0  0  0  0  0  0  0  0  0  0  0
  -88.9426   34.2138   -4.7681 C   0  0  0  0  0  0  0  0  0  0  0  0
  -88.0509   33.2043   -5.0537 C   0  0  0  0  0  0  0  0  0  0  0  0
  -87.6684   32.3439   -4.0498 C   0  0  0  0  0  0  0  0  0  0  0  0
  -88.1213   32.4264   -2.7665 C   0  0  0  0  0  0  0  0  0  0  0  0
  -89.0261   33.4597   -2.5021 C   0  0  0  0  0  0  0  0  0  0  0  0
  -90.7106   35.4831   -2.2737 H   0  0  0  0  0  0  0  0  0  0  0  0
  -88.3436   28.6900    0.4719 C   0  0  0  0  0  0  0  0  0  0  0  0
  -87.2628   28.1111    1.3135 C   0  0  0  0  0  0  0  0  0  0  0  0
  -86.7910   26.7568    0.8536 C   0  0  0  0  0  0  0  0  0  0  0  0
  -87.8842   25.7904    0.5727 C   0  0  0  0  0  0  0  0  0  0  0  0
  -89.0668   26.3791    0.0543 N   0  0  0  0  0  0  0  0  0  0  0  0
  -88.9621   27.6889   -0.4758 C   0  0  0  0  0  0  0  0  0  0  0  0
  -90.4826   26.0681    0.9520 S   0  0  0  0  0  0  0  0  0  0  0  0
  -90.8471   24.6143    0.8634 O   0  0  0  0  0  0  0  0  0  0  0  0
  -91.6669   26.8470    0.4556 O   0  0  0  0  0  0  0  0  0  0  0  0
  -90.2972   26.4463    2.6493 C   0  0  0  0  0  0  0  0  0  0  0  0
  -90.4679   27.7280    3.1399 C   0  0  0  0  0  0  0  0  0  0  0  0
  -90.3108   27.9830    4.4900 C   0  0  0  0  0  0  0  0  0  0  0  0
  -89.9851   26.9995    5.3888 C   0  0  0  0  0  0  0  0  0  0  0  0
  -89.8144   25.7230    4.9046 C   0  0  0  0  0  0  0  0  0  0  0  0
  -89.9708   25.4563    3.5450 C   0  0  0  0  0  0  0  0  0  0  0  0
 13 14  1  0  0  0
 14 15  2  0  0  0
 15 16  1  0  0  0
 16 17  2  0  0  0
 17 18  1  0  0  0
 18 19  2  0  0  0
 18  1  1  0  0  0
  1  2  2  0  0  0
  2  3  1  0  0  0
  3 21  1  0  0  0
 21 22  1  0  0  0
 22 23  1  0  0  0
 23 24  1  0  0  0
 24 25  1  0  0  0
 25 26  1  0  0  0
 25 27  1  0  0  0
 27 28  2  0  0  0
 27 29  2  0  0  0
 27 30  1  0  0  0
 30 31  2  0  0  0
 31 32  1  0  0  0
 32 33  2  0  0  0
 33 34  1  0  0  0
 34 35  2  0  0  0
  3  4  1  0  0  0
  4  5  2  0  0  0
  5  6  1  0  0  0
  6  7  2  0  0  0
  7  8  1  0  0  0
  8  9  1  0  0  0
  8 10  2  0  0  0
 19 14  1  0  0  0
 10  1  1  0  0  0
 26 21  1  0  0  0
 35 30  1  0  0  0
 10  4  1  0  0  0
 13 20  1  0  0  0
  9 11  1  0  0  0
  9 12  1  0  0  0
M  END
> <minimizedAffinity>
-9.39409

> <CNNscore>
0.1945570409

> <CNNaffinity>
6.7646560669

> <CNN_VS>
1.3161114454

> <CNNaffinity_variance>
0.3138301671

$$$$
[H]Oc1c([H])c([H])c([H])c(-c2nn([C@@]3([H])C([H])([H])N(S(=O)(=O)c4c([H])c([H])c([H])c([H])c4[H])C([H])([H])C([H])([H])C3([H])[H])c3nc([H])nc(N([H])[H])c23)c1[H]


 35 39  0  0  0  0  0  0  0  0999 V2000
  -86.2643   29.9643    0.4226 C   0  0  0  0  0  0  0  0  0  0  0  0
  -87.2755   29.0376    0.3126 N   0  0  0  0  0  0  0  0  0  0  0  0
  -88.3135   29.5743   -0.2744 N   0  0  0  0  0  0  0  0  0  0  0  0
  -88.0295   30.8587   -0.5711 C   0  0  0  0  0  0  0  0  0  0  0  0
  -88.7093   31.8479   -1.1713 N   0  0  0  0  0  0  0  0  0  0  0  0
  -88.1412   33.0486   -1.3419 C   0  0  0  0  0  0  0  0  0  0  0  0
  -86.8965   33.3174   -0.9331 N   0  0  0  0  0  0  0  0  0  0  0  0
  -86.1474   32.3673   -0.3177 C   0  0  0  0  0  0  0  0  0  0  0  0
  -84.8214   32.6527    0.0795 N   0  0  0  0  0  0  0  0  0  0  0  0
  -86.7314   31.1131   -0.1332 C   0  0  0  0  0  0  0  0  0  0  0  0
  -84.6564   33.2284    0.9162 H   0  0  0  0  0  0  0  0  0  0  0  0
  -84.0356   32.2824   -0.4715 H   0  0  0  0  0  0  0  0  0  0  0  0
  -83.6022   26.9653    3.1485 O   0  0  0  0  0  0  0  0  0  0  0  0
  -83.6950   28.1142    2.3705 C   0  0  0  0  0  0  0  0  0  0  0  0
  -82.5486   28.8656    2.1923 C   0  0  0  0  0  0  0  0  0  0  0  0
  -82.6150   30.0079    1.4265 C   0  0  0  0  0  0  0  0  0  0  0  0
  -83.8178   30.3677    0.8623 C   0  0  0  0  0  0  0  0  0  0  0  0
  -84.9699   29.6544    1.0129 C   0  0  0  0  0  0  0  0  0  0  0  0
  -84.8764   28.4988    1.7953 C   0  0  0  0  0  0  0  0  0  0  0  0
  -84.4274   26.3782    3.3071 H   0  0  0  0  0  0  0  0  0  0  0  0
  -89.5994   28.9514   -0.5906 C   0  0  0  0  0  0  0  0  0  0  0  0
  -90.5895   29.1130    0.5072 C   0  0  0  0  0  0  0  0  0  0  0  0
  -90.9735   27.8199    1.1772 C   0  0  0  0  0  0  0  0  0  0  0  0
  -91.3271   26.7247    0.2373 C   0  0  0  0  0  0  0  0  0  0  0  0
  -90.5992   26.7412   -0.9808 N   0  0  0  0  0  0  0  0  0  0  0  0
  -89.4126   27.5144   -1.0183 C   0  0  0  0  0  0  0  0  0  0  0  0
  -91.5535   26.8032   -2.3924 S   0  0  0  0  0  0  0  0  0  0  0  0
  -90.7357   27.2908   -3.5533 O   0  0  0  0  0  0  0  0  0  0  0  0
  -92.7245   27.7342   -2.2604 O   0  0  0  0  0  0  0  0  0  0  0  0
  -92.1929   25.2379   -2.8389 C   0  0  0  0  0  0  0  0  0  0  0  0
  -91.6260   24.0578   -2.3933 C   0  0  0  0  0  0  0  0  0  0  0  0
  -92.1636   22.8412   -2.7717 C   0  0  0  0  0  0  0  0  0  0  0  0
  -93.2608   22.7470   -3.5893 C   0  0  0  0  0  0  0  0  0  0  0  0
  -93.8277   23.9188   -4.0347 C   0  0  0  0  0  0  0  0  0  0  0  0
  -93.2926   25.1502   -3.6584 C   0  0  0  0  0  0  0  0  0  0  0  0
 13 14  1  0  0  0
 14 15  2  0  0  0
 15 16  1  0  0  0
 16 17  2  0  0  0
 17 18  1  0  0  0
 18 19  2  0  0  0
 18  1  1  0  0  0
  1  2  2  0  0  0
  2  3  1  0  0  0
  3 21  1  0  0  0
 21 22  1  0  0  0
 22 23  1  0  0  0
 23 24  1  0  0  0
 24 25  1  0  0  0
 25 26  1  0  0  0
 25 27  1  0  0  0
 27 28  2  0  0  0
 27 29  2  0  0  0
 27 30  1  0  0  0
 30 31  2  0  0  0
 31 32  1  0  0  0
 32 33  2  0  0  0
 33 34  1  0  0  0
 34 35  2  0  0  0
  3  4  1  0  0  0
  4  5  2  0  0  0
  5  6  1  0  0  0
  6  7  2  0  0  0
  7  8  1  0  0  0
  8  9  1  0  0  0
  8 10  2  0  0  0
 19 14  1  0  0  0
 10  1  1  0  0  0
 26 21  1  0  0  0
 35 30  1  0  0  0
 10  4  1  0  0  0
 13 20  1  0  0  0
  9 11  1  0  0  0
  9 12  1  0  0  0
M  END
> <minimizedAffinity>
-10.71291

> <CNNscore>
0.1762100160

> <CNNaffinity>
6.6168470383

> <CNN_VS>
1.1659547091

> <CNNaffinity_variance>
0.0890811160

$$$$
[H]Oc1c([H])c([H])c([H])c(-c2nn([C@@]3([H])C([H])([H])N(S(=O)(=O)c4c([H])c([H])c([H])c([H])c4[H])C([H])([H])C([H])([H])C3([H])[H])c3nc([H])nc(N([H])[H])c23)c1[H]


 35 39  0  0  0  0  0  0  0  0999 V2000
  -86.1849   30.0598    0.4002 C   0  0  0  0  0  0  0  0  0  0  0  0
  -87.2277   29.1704    0.2790 N   0  0  0  0  0  0  0  0  0  0  0  0
  -88.2378   29.7431   -0.3226 N   0  0  0  0  0  0  0  0  0  0  0  0
  -87.9032   31.0155   -0.6182 C   0  0  0  0  0  0  0  0  0  0  0  0
  -88.5386   32.0273   -1.2292 N   0  0  0  0  0  0  0  0  0  0  0  0
  -87.9248   33.2061   -1.3949 C   0  0  0  0  0  0  0  0  0  0  0  0
  -86.6765   33.4303   -0.9706 N   0  0  0  0  0  0  0  0  0  0  0  0
  -85.9707   32.4550   -0.3435 C   0  0  0  0  0  0  0  0  0  0  0  0
  -84.6404   32.6929    0.0704 N   0  0  0  0  0  0  0  0  0  0  0  0
  -86.6024   31.2234   -0.1640 C   0  0  0  0  0  0  0  0  0  0  0  0
  -84.4653   33.2643    0.9080 H   0  0  0  0  0  0  0  0  0  0  0  0
  -83.8616   32.2927   -0.4696 H   0  0  0  0  0  0  0  0  0  0  0  0
  -83.6554   26.9421    3.1192 O   0  0  0  0  0  0  0  0  0  0  0  0
  -83.7029   28.1064    2.3604 C   0  0  0  0  0  0  0  0  0  0  0  0
  -82.5334   28.8291    2.2162 C   0  0  0  0  0  0  0  0  0  0  0  0
  -82.5548   29.9860    1.4700 C   0  0  0  0  0  0  0  0  0  0  0  0
  -83.7368   30.3883    0.8908 C   0  0  0  0  0  0  0  0  0  0  0  0
  -84.9104   29.7044    1.0080 C   0  0  0  0  0  0  0  0  0  0  0  0
  -84.8626   28.5332    1.7711 C   0  0  0  0  0  0  0  0  0  0  0  0
  -84.4990   26.3751    3.2525 H   0  0  0  0  0  0  0  0  0  0  0  0
  -89.5414   29.1668   -0.6542 C   0  0  0  0  0  0  0  0  0  0  0  0
  -90.5456   29.3880    0.4201 C   0  0  0  0  0  0  0  0  0  0  0  0
  -90.9950   28.1239    1.1045 C   0  0  0  0  0  0  0  0  0  0  0  0
  -91.3740   27.0269    0.1768 C   0  0  0  0  0  0  0  0  0  0  0  0
  -90.6222   26.9918   -1.0263 N   0  0  0  0  0  0  0  0  0  0  0  0
  -89.4046   27.7159   -1.0528 C   0  0  0  0  0  0  0  0  0  0  0  0
  -91.5450   27.0664   -2.4580 S   0  0  0  0  0  0  0  0  0  0  0  0
  -92.6828   26.0888   -2.3963 O   0  0  0  0  0  0  0  0  0  0  0  0
  -90.7439   26.7286   -3.6826 O   0  0  0  0  0  0  0  0  0  0  0  0
  -92.2432   28.6476   -2.7242 C   0  0  0  0  0  0  0  0  0  0  0  0
  -93.4259   29.0395   -2.1239 C   0  0  0  0  0  0  0  0  0  0  0  0
  -93.9433   30.2995   -2.3629 C   0  0  0  0  0  0  0  0  0  0  0  0
  -93.3231   31.2023   -3.1885 C   0  0  0  0  0  0  0  0  0  0  0  0
  -92.1463   30.8161   -3.7875 C   0  0  0  0  0  0  0  0  0  0  0  0
  -91.6169   29.5477   -3.5525 C   0  0  0  0  0  0  0  0  0  0  0  0
 13 14  1  0  0  0
 14 15  2  0  0  0
 15 16  1  0  0  0
 16 17  2  0  0  0
 17 18  1  0  0  0
 18 19  2  0  0  0
 18  1  1  0  0  0
  1  2  2  0  0  0
  2  3  1  0  0  0
  3 21  1  0  0  0
 21 22  1  0  0  0
 22 23  1  0  0  0
 23 24  1  0  0  0
 24 25  1  0  0  0
 25 26  1  0  0  0
 25 27  1  0  0  0
 27 28  2  0  0  0
 27 29  2  0  0  0
 27 30  1  0  0  0
 30 31  2  0  0  0
 31 32  1  0  0  0
 32 33  2  0  0  0
 33 34  1  0  0  0
 34 35  2  0  0  0
  3  4  1  0  0  0
  4  5  2  0  0  0
  5  6  1  0  0  0
  6  7  2  0  0  0
  7  8  1  0  0  0
  8  9  1  0  0  0
  8 10  2  0  0  0
 19 14  1  0  0  0
 10  1  1  0  0  0
 26 21  1  0  0  0
 35 30  1  0  0  0
 10  4  1  0  0  0
 13 20  1  0  0  0
  9 11  1  0  0  0
  9 12  1  0  0  0
M  END
> <minimizedAffinity>
-10.25224

> <CNNscore>
0.1680214107

> <CNNaffinity>
6.6786208153

> <CNN_VS>
1.1221512556

> <CNNaffinity_variance>
0.1130185574

$$$$
[H]Oc1c([H])c([H])c([H])c(-c2nn([C@@]3([H])C([H])([H])N(S(=O)(=O)c4c([H])c([H])c([H])c([H])c4[H])C([H])([H])C([H])([H])C3([H])[H])c3nc([H])nc(N([H])[H])c23)c1[H]


 35 39  0  0  0  0  0  0  0  0999 V2000
  -87.1985   30.2496   -0.2885 C   0  0  0  0  0  0  0  0  0  0  0  0
  -88.3689   30.3303   -1.0075 N   0  0  0  0  0  0  0  0  0  0  0  0
  -88.4398   31.4830   -1.6208 N   0  0  0  0  0  0  0  0  0  0  0  0
  -87.3323   32.1968   -1.3343 C   0  0  0  0  0  0  0  0  0  0  0  0
  -86.8885   33.4112   -1.6938 N   0  0  0  0  0  0  0  0  0  0  0  0
  -85.7069   33.8560   -1.2470 C   0  0  0  0  0  0  0  0  0  0  0  0
  -84.9266   33.1300   -0.4390 N   0  0  0  0  0  0  0  0  0  0  0  0
  -85.3088   31.8926   -0.0323 C   0  0  0  0  0  0  0  0  0  0  0  0
  -84.4607   31.1212    0.7941 N   0  0  0  0  0  0  0  0  0  0  0  0
  -86.5398   31.4209   -0.4909 C   0  0  0  0  0  0  0  0  0  0  0  0
  -84.3819   31.3514    1.7939 H   0  0  0  0  0  0  0  0  0  0  0  0
  -83.9313   30.3382    0.3880 H   0  0  0  0  0  0  0  0  0  0  0  0
  -87.4072   25.4318    0.2181 O   0  0  0  0  0  0  0  0  0  0  0  0
  -86.9565   26.6666    0.6718 C   0  0  0  0  0  0  0  0  0  0  0  0
  -86.1662   26.6867    1.8056 C   0  0  0  0  0  0  0  0  0  0  0  0
  -85.7079   27.8973    2.2750 C   0  0  0  0  0  0  0  0  0  0  0  0
  -86.0491   29.0492    1.6034 C   0  0  0  0  0  0  0  0  0  0  0  0
  -86.8247   29.0723    0.4824 C   0  0  0  0  0  0  0  0  0  0  0  0
  -87.2779   27.8303    0.0260 C   0  0  0  0  0  0  0  0  0  0  0  0
  -87.9957   25.3701   -0.6190 H   0  0  0  0  0  0  0  0  0  0  0  0
  -89.5065   31.9849   -2.4879 C   0  0  0  0  0  0  0  0  0  0  0  0
  -90.8019   31.2961   -2.2451 C   0  0  0  0  0  0  0  0  0  0  0  0
  -91.2736   30.4581   -3.4042 C   0  0  0  0  0  0  0  0  0  0  0  0
  -91.2242   31.1484   -4.7190 C   0  0  0  0  0  0  0  0  0  0  0  0
  -90.1530   32.0689   -4.8569 N   0  0  0  0  0  0  0  0  0  0  0  0
  -89.0806   31.9603   -3.9373 C   0  0  0  0  0  0  0  0  0  0  0  0
  -90.6149   33.6619   -5.2518 S   0  0  0  0  0  0  0  0  0  0  0  0
  -91.8813   34.0304   -4.5344 O   0  0  0  0  0  0  0  0  0  0  0  0
  -90.8750   33.8433   -6.7198 O   0  0  0  0  0  0  0  0  0  0  0  0
  -89.4075   34.8425   -4.7970 C   0  0  0  0  0  0  0  0  0  0  0  0
  -89.5039   35.5813   -3.6319 C   0  0  0  0  0  0  0  0  0  0  0  0
  -88.5264   36.5055   -3.3111 C   0  0  0  0  0  0  0  0  0  0  0  0
  -87.4377   36.7298   -4.1145 C   0  0  0  0  0  0  0  0  0  0  0  0
  -87.3382   35.9968   -5.2745 C   0  0  0  0  0  0  0  0  0  0  0  0
  -88.3188   35.0627   -5.6063 C   0  0  0  0  0  0  0  0  0  0  0  0
 13 14  1  0  0  0
 14 15  2  0  0  0
 15 16  1  0  0  0
 16 17  2  0  0  0
 17 18  1  0  0  0
 18 19  2  0  0  0
 18  1  1  0  0  0
  1  2  2  0  0  0
  2  3  1  0  0  0
  3 21  1  0  0  0
 21 22  1  0  0  0
 22 23  1  0  0  0
 23 24  1  0  0  0
 24 25  1  0  0  0
 25 26  1  0  0  0
 25 27  1  0  0  0
 27 28  2  0  0  0
 27 29  2  0  0  0
 27 30  1  0  0  0
 30 31  2  0  0  0
 31 32  1  0  0  0
 32 33  2  0  0  0
 33 34  1  0  0  0
 34 35  2  0  0  0
  3  4  1  0  0  0
  4  5  2  0  0  0
  5  6  1  0  0  0
  6  7  2  0  0  0
  7  8  1  0  0  0
  8  9  1  0  0  0
  8 10  2  0  0  0
 19 14  1  0  0  0
 10  1  1  0  0  0
 26 21  1  0  0  0
 35 30  1  0  0  0
 10  4  1  0  0  0
 13 20  1  0  0  0
  9 11  1  0  0  0
  9 12  1  0  0  0
M  END
> <minimizedAffinity>
-8.74635

> <CNNscore>
0.1552924663

> <CNNaffinity>
6.3797826767

> <CNN_VS>
0.9907321930

> <CNNaffinity_variance>
0.2877193391

$$$$
[H]Oc1c([H])c([H])c([H])c(-c2nn([C@@]3([H])C([H])([H])N(S(=O)(=O)c4c([H])c([H])c([H])c([H])c4[H])C([H])([H])C([H])([H])C3([H])[H])c3nc([H])nc(N([H])[H])c23)c1[H]


 35 39  0  0  0  0  0  0  0  0999 V2000
  -86.2526   29.8074    0.2649 C   0  0  0  0  0  0  0  0  0  0  0  0
  -87.1616   28.8049    0.0158 N   0  0  0  0  0  0  0  0  0  0  0  0
  -88.2121   29.2928   -0.5910 N   0  0  0  0  0  0  0  0  0  0  0  0
  -88.0376   30.6186   -0.7640 C   0  0  0  0  0  0  0  0  0  0  0  0
  -88.7753   31.5895   -1.3245 N   0  0  0  0  0  0  0  0  0  0  0  0
  -88.3175   32.8475   -1.3608 C   0  0  0  0  0  0  0  0  0  0  0  0
  -87.1295   33.1930   -0.8529 N   0  0  0  0  0  0  0  0  0  0  0  0
  -86.3276   32.2659   -0.2697 C   0  0  0  0  0  0  0  0  0  0  0  0
  -85.0598   32.6364    0.2333 N   0  0  0  0  0  0  0  0  0  0  0  0
  -86.7968   30.9522   -0.2249 C   0  0  0  0  0  0  0  0  0  0  0  0
  -84.9984   33.1502    1.1226 H   0  0  0  0  0  0  0  0  0  0  0  0
  -84.2122   32.3889   -0.2945 H   0  0  0  0  0  0  0  0  0  0  0  0
  -83.5833   27.0142    3.1948 O   0  0  0  0  0  0  0  0  0  0  0  0
  -83.6892   28.1282    2.3691 C   0  0  0  0  0  0  0  0  0  0  0  0
  -82.5643   28.9132    2.1994 C   0  0  0  0  0  0  0  0  0  0  0  0
  -82.6440   30.0220    1.3870 C   0  0  0  0  0  0  0  0  0  0  0  0
  -83.8384   30.3159    0.7693 C   0  0  0  0  0  0  0  0  0  0  0  0
  -84.9694   29.5676    0.9098 C   0  0  0  0  0  0  0  0  0  0  0  0
  -84.8627   28.4472    1.7402 C   0  0  0  0  0  0  0  0  0  0  0  0
  -84.3924   26.4041    3.3491 H   0  0  0  0  0  0  0  0  0  0  0  0
  -89.4120   28.5843   -1.0380 C   0  0  0  0  0  0  0  0  0  0  0  0
  -89.6816   27.3656   -0.2294 C   0  0  0  0  0  0  0  0  0  0  0  0
  -89.5412   26.0792   -0.9999 C   0  0  0  0  0  0  0  0  0  0  0  0
  -90.2429   26.0701   -2.3096 C   0  0  0  0  0  0  0  0  0  0  0  0
  -90.2736   27.3279   -2.9658 N   0  0  0  0  0  0  0  0  0  0  0  0
  -89.3573   28.3140   -2.5235 C   0  0  0  0  0  0  0  0  0  0  0  0
  -91.8310   27.9030   -3.3541 S   0  0  0  0  0  0  0  0  0  0  0  0
  -91.7379   29.2295   -4.0514 O   0  0  0  0  0  0  0  0  0  0  0  0
  -92.6934   28.1058   -2.1414 O   0  0  0  0  0  0  0  0  0  0  0  0
  -92.6975   26.8233   -4.4227 C   0  0  0  0  0  0  0  0  0  0  0  0
  -93.2761   25.6508   -3.9719 C   0  0  0  0  0  0  0  0  0  0  0  0
  -93.9517   24.8253   -4.8520 C   0  0  0  0  0  0  0  0  0  0  0  0
  -94.0784   25.1218   -6.1851 C   0  0  0  0  0  0  0  0  0  0  0  0
  -93.5042   26.2874   -6.6373 C   0  0  0  0  0  0  0  0  0  0  0  0
  -92.8210   27.1261   -5.7574 C   0  0  0  0  0  0  0  0  0  0  0  0
 13 14  1  0  0  0
 14 15  2  0  0  0
 15 16  1  0  0  0
 16 17  2  0  0  0
 17 18  1  0  0  0
 18 19  2  0  0  0
 18  1  1  0  0  0
  1  2  2  0  0  0
  2  3  1  0  0  0
  3 21  1  0  0  0
 21 22  1  0  0  0
 22 23  1  0  0  0
 23 24  1  0  0  0
 24 25  1  0  0  0
 25 26  1  0  0  0
 25 27  1  0  0  0
 27 28  2  0  0  0
 27 29  2  0  0  0
 27 30  1  0  0  0
 30 31  2  0  0  0
 31 32  1  0  0  0
 32 33  2  0  0  0
 33 34  1  0  0  0
 34 35  2  0  0  0
  3  4  1  0  0  0
  4  5  2  0  0  0
  5  6  1  0  0  0
  6  7  2  0  0  0
  7  8  1  0  0  0
  8  9  1  0  0  0
  8 10  2  0  0  0
 19 14  1  0  0  0
 10  1  1  0  0  0
 26 21  1  0  0  0
 35 30  1  0  0  0
 10  4  1  0  0  0
 13 20  1  0  0  0
  9 11  1  0  0  0
  9 12  1  0  0  0
M  END
> <minimizedAffinity>
-10.59607

> <CNNscore>
0.1436403245

> <CNNaffinity>
6.4842367172

> <CNN_VS>
0.9313978553

> <CNNaffinity_variance>
0.2251657993

$$$$
[H]OC(=O)C([H])(C(=O)N([H])[C@]([H])(C(=O)N([H])C([H])([H])C(=O)N([H])[C@]([H])(C(=O)O[H])C([H])([H])c1c([H])c([H])c(O[H])c([H])c1[H])[C@]([H])(C([H])([H])[H])C([H])([H])C([H])([H])[H])C([H])([H])S[H]


 40 40  0  0  0  0  0  0  0  0999 V2000
  -89.7117   26.0997    1.2956 C   0  0  0  0  0  0  0  0  0  0  0  0
  -88.9870   25.4662    0.4779 O   0  0  0  0  0  0  0  0  0  0  0  0
  -89.8576   27.4847    1.1314 N   0  0  0  0  0  0  0  0  0  0  0  0
  -90.4803   27.9835    1.8382 H   0  0  0  0  0  0  0  0  0  0  0  0
  -90.3591   25.2972    2.3766 C   0  0  0  0  0  0  0  0  0  0  0  0
  -90.1211   23.8824    2.0531 N   0  0  0  0  0  0  0  0  0  0  0  0
  -91.1845   22.9838    1.7863 C   0  0  0  0  0  0  0  0  0  0  0  0
  -92.3699   23.4347    1.8312 O   0  0  0  0  0  0  0  0  0  0  0  0
  -89.1497   23.5222    2.0171 H   0  0  0  0  0  0  0  0  0  0  0  0
  -90.8895   21.5801    1.4722 C   0  0  0  0  0  0  0  0  0  0  0  0
  -89.6899   21.4428    0.6458 C   0  0  0  0  0  0  0  0  0  0  0  0
  -88.6130   20.7022    1.1087 O   0  0  0  0  0  0  0  0  0  0  0  0
  -89.6156   21.9811   -0.4729 O   0  0  0  0  0  0  0  0  0  0  0  0
  -88.1089   20.0429    0.4989 H   0  0  0  0  0  0  0  0  0  0  0  0
  -92.0866   20.8721    0.8648 C   0  0  0  0  0  0  0  0  0  0  0  0
  -92.0858   19.1448    1.3635 S   0  0  0  0  0  0  0  0  0  0  0  0
  -93.2254   18.9373    2.1951 H   0  0  0  0  0  0  0  0  0  0  0  0
  -89.6762   25.6387    3.6768 C   0  0  0  0  0  0  0  0  0  0  0  0
  -89.1060   24.4162    4.3597 C   0  0  0  0  0  0  0  0  0  0  0  0
  -90.0976   27.9084    4.6460 C   0  0  0  0  0  0  0  0  0  0  0  0
  -90.5151   26.4637    4.5751 C   0  0  0  0  0  0  0  0  0  0  0  0
  -89.2100   28.1801    0.0644 C   0  0  0  0  0  0  0  0  0  0  0  0
  -87.7400   28.2723    0.1785 C   0  0  0  0  0  0  0  0  0  0  0  0
  -87.0180   28.2952   -0.8556 O   0  0  0  0  0  0  0  0  0  0  0  0
  -87.1300   28.3352    1.4610 N   0  0  0  0  0  0  0  0  0  0  0  0
  -87.7089   28.3195    2.3133 H   0  0  0  0  0  0  0  0  0  0  0  0
  -85.6776   28.4223    1.5536 C   0  0  0  0  0  0  0  0  0  0  0  0
  -85.2130   27.1793    2.1956 C   0  0  0  0  0  0  0  0  0  0  0  0
  -83.8898   27.0898    2.6256 O   0  0  0  0  0  0  0  0  0  0  0  0
  -85.9431   26.1671    2.3884 O   0  0  0  0  0  0  0  0  0  0  0  0
  -83.7317   26.8103    3.5703 H   0  0  0  0  0  0  0  0  0  0  0  0
  -85.2329   29.6516    2.3158 C   0  0  0  0  0  0  0  0  0  0  0  0
  -84.8839   30.7619    1.3967 C   0  0  0  0  0  0  0  0  0  0  0  0
  -85.8130   31.4515    0.6467 C   0  0  0  0  0  0  0  0  0  0  0  0
  -85.4476   32.4721   -0.2048 C   0  0  0  0  0  0  0  0  0  0  0  0
  -84.1304   32.8636   -0.3566 C   0  0  0  0  0  0  0  0  0  0  0  0
  -83.7716   33.8913   -1.2158 O   0  0  0  0  0  0  0  0  0  0  0  0
  -83.1876   32.1774    0.3924 C   0  0  0  0  0  0  0  0  0  0  0  0
  -83.5500   31.1572    1.2445 C   0  0  0  0  0  0  0  0  0  0  0  0
  -83.7499   34.8144   -0.8472 H   0  0  0  0  0  0  0  0  0  0  0  0
 20 21  1  0  0  0
 21 18  1  0  0  0
 18 19  1  0  0  0
 18  5  1  0  0  0
  5  6  1  0  0  0
  6  7  1  0  0  0
  7  8  2  0  0  0
  7 10  1  0  0  0
 10 15  1  0  0  0
 15 16  1  0  0  0
 10 11  1  0  0  0
 11 12  1  0  0  0
 11 13  2  0  0  0
  5  1  1  0  0  0
  1  2  2  0  0  0
  1  3  1  0  0  0
  3 22  1  0  0  0
 22 23  1  0  0  0
 23 24  2  0  0  0
 23 25  1  0  0  0
 25 27  1  0  0  0
 27 32  1  0  0  0
 32 33  1  0  0  0
 33 34  2  0  0  0
 34 35  1  0  0  0
 35 36  2  0  0  0
 36 37  1  0  0  0
 36 38  1  0  0  0
 38 39  2  0  0  0
 27 28  1  0  0  0
 28 29  1  0  0  0
 28 30  2  0  0  0
 39 33  1  0  0  0
  6  9  1  0  0  0
 16 17  1  0  0  0
 12 14  1  0  0  0
  3  4  1  0  0  0
 25 26  1  0  0  0
 37 40  1  0  0  0
 29 31  1  0  0  0
M  END
> <minimizedAffinity>
-8.30544

> <CNNscore>
0.3869049549

> <CNNaffinity>
6.0983839035

> <CNN_VS>
2.3594949245

> <CNNaffinity_variance>
0.1930628121

$$$$
[H]OC(=O)C([H])(C(=O)N([H])[C@]([H])(C(=O)N([H])C([H])([H])C(=O)N([H])[C@]([H])(C(=O)O[H])C([H])([H])c1c([H])c([H])c(O[H])c([H])c1[H])[C@]([H])(C([H])([H])[H])C([H])([H])C([H])([H])[H])C([H])([H])S[H]


 40 40  0  0  0  0  0  0  0  0999 V2000
  -88.3700   27.5721   -0.0939 C   0  0  0  0  0  0  0  0  0  0  0  0
  -87.4385   27.1876    0.6675 O   0  0  0  0  0  0  0  0  0  0  0  0
  -88.0894   28.5520   -1.0571 N   0  0  0  0  0  0  0  0  0  0  0  0
  -88.8996   28.8473   -1.6837 H   0  0  0  0  0  0  0  0  0  0  0  0
  -89.7046   26.9313    0.1057 C   0  0  0  0  0  0  0  0  0  0  0  0
  -89.8016   26.5925    1.5335 N   0  0  0  0  0  0  0  0  0  0  0  0
  -89.9719   25.2575    1.9788 C   0  0  0  0  0  0  0  0  0  0  0  0
  -90.0382   24.3420    1.1024 O   0  0  0  0  0  0  0  0  0  0  0  0
  -89.7451   27.3461    2.2431 H   0  0  0  0  0  0  0  0  0  0  0  0
  -90.0665   24.9767    3.4169 C   0  0  0  0  0  0  0  0  0  0  0  0
  -90.5200   23.6109    3.6810 C   0  0  0  0  0  0  0  0  0  0  0  0
  -89.6012   22.5733    3.7208 O   0  0  0  0  0  0  0  0  0  0  0  0
  -91.7229   23.3591    3.8722 O   0  0  0  0  0  0  0  0  0  0  0  0
  -89.6365   21.8483    4.4513 H   0  0  0  0  0  0  0  0  0  0  0  0
  -90.9103   26.0096    4.1411 C   0  0  0  0  0  0  0  0  0  0  0  0
  -89.9639   26.7253    5.4919 S   0  0  0  0  0  0  0  0  0  0  0  0
  -89.7421   28.0989    5.1803 H   0  0  0  0  0  0  0  0  0  0  0  0
  -90.7616   27.9481   -0.2439 C   0  0  0  0  0  0  0  0  0  0  0  0
  -91.1976   28.7541    0.9587 C   0  0  0  0  0  0  0  0  0  0  0  0
  -91.5207   26.2157   -1.8844 C   0  0  0  0  0  0  0  0  0  0  0  0
  -91.8987   27.3701   -0.9950 C   0  0  0  0  0  0  0  0  0  0  0  0
  -86.7816   29.1117   -1.1905 C   0  0  0  0  0  0  0  0  0  0  0  0
  -86.6073   30.4471   -0.5833 C   0  0  0  0  0  0  0  0  0  0  0  0
  -87.6104   31.1588   -0.3035 O   0  0  0  0  0  0  0  0  0  0  0  0
  -85.3013   30.9382   -0.3111 N   0  0  0  0  0  0  0  0  0  0  0  0
  -84.4739   30.3655   -0.5331 H   0  0  0  0  0  0  0  0  0  0  0  0
  -85.1490   32.2599    0.2851 C   0  0  0  0  0  0  0  0  0  0  0  0
  -84.3799   33.0764   -0.6713 C   0  0  0  0  0  0  0  0  0  0  0  0
  -83.0671   33.4296   -0.3620 O   0  0  0  0  0  0  0  0  0  0  0  0
  -84.8342   33.4883   -1.7753 O   0  0  0  0  0  0  0  0  0  0  0  0
  -82.3651   33.2296   -1.0422 H   0  0  0  0  0  0  0  0  0  0  0  0
  -84.4772   32.1945    1.6395 C   0  0  0  0  0  0  0  0  0  0  0  0
  -84.1186   30.8013    1.9995 C   0  0  0  0  0  0  0  0  0  0  0  0
  -82.9121   30.2169    1.6767 C   0  0  0  0  0  0  0  0  0  0  0  0
  -82.6197   28.9144    2.0207 C   0  0  0  0  0  0  0  0  0  0  0  0
  -83.5174   28.1189    2.7083 C   0  0  0  0  0  0  0  0  0  0  0  0
  -83.2150   26.8094    3.0501 O   0  0  0  0  0  0  0  0  0  0  0  0
  -84.7336   28.6958    3.0381 C   0  0  0  0  0  0  0  0  0  0  0  0
  -85.0284   29.9975    2.6959 C   0  0  0  0  0  0  0  0  0  0  0  0
  -82.7750   26.6515    3.9275 H   0  0  0  0  0  0  0  0  0  0  0  0
 20 21  1  0  0  0
 21 18  1  0  0  0
 18 19  1  0  0  0
 18  5  1  0  0  0
  5  6  1  0  0  0
  6  7  1  0  0  0
  7  8  2  0  0  0
  7 10  1  0  0  0
 10 15  1  0  0  0
 15 16  1  0  0  0
 10 11  1  0  0  0
 11 12  1  0  0  0
 11 13  2  0  0  0
  5  1  1  0  0  0
  1  2  2  0  0  0
  1  3  1  0  0  0
  3 22  1  0  0  0
 22 23  1  0  0  0
 23 24  2  0  0  0
 23 25  1  0  0  0
 25 27  1  0  0  0
 27 32  1  0  0  0
 32 33  1  0  0  0
 33 34  2  0  0  0
 34 35  1  0  0  0
 35 36  2  0  0  0
 36 37  1  0  0  0
 36 38  1  0  0  0
 38 39  2  0  0  0
 27 28  1  0  0  0
 28 29  1  0  0  0
 28 30  2  0  0  0
 39 33  1  0  0  0
  6  9  1  0  0  0
 16 17  1  0  0  0
 12 14  1  0  0  0
  3  4  1  0  0  0
 25 26  1  0  0  0
 37 40  1  0  0  0
 29 31  1  0  0  0
M  END
> <minimizedAffinity>
-8.80938

> <CNNscore>
0.3864176869

> <CNNaffinity>
6.3580083847

> <CNN_VS>
2.4568469524

> <CNNaffinity_variance>
0.0844157115

$$$$
[H]OC(=O)C([H])(C(=O)N([H])[C@]([H])(C(=O)N([H])C([H])([H])C(=O)N([H])[C@]([H])(C(=O)O[H])C([H])([H])c1c([H])c([H])c(O[H])c([H])c1[H])[C@]([H])(C([H])([H])[H])C([H])([H])C([H])([H])[H])C([H])([H])S[H]


 40 40  0  0  0  0  0  0  0  0999 V2000
  -88.6174   28.2185    0.6704 C   0  0  0  0  0  0  0  0  0  0  0  0
  -87.5827   28.0916    1.3834 O   0  0  0  0  0  0  0  0  0  0  0  0
  -88.5053   28.8684   -0.5672 N   0  0  0  0  0  0  0  0  0  0  0  0
  -89.3990   28.9521   -1.1420 H   0  0  0  0  0  0  0  0  0  0  0  0
  -89.8839   27.6498    1.2222 C   0  0  0  0  0  0  0  0  0  0  0  0
  -90.6413   27.1171    0.0795 N   0  0  0  0  0  0  0  0  0  0  0  0
  -91.5823   27.9044   -0.6304 C   0  0  0  0  0  0  0  0  0  0  0  0
  -91.7601   29.1031   -0.2534 O   0  0  0  0  0  0  0  0  0  0  0  0
  -90.4892   26.1373   -0.2229 H   0  0  0  0  0  0  0  0  0  0  0  0
  -92.3136   27.3201   -1.7618 C   0  0  0  0  0  0  0  0  0  0  0  0
  -92.9429   26.0469   -1.4101 C   0  0  0  0  0  0  0  0  0  0  0  0
  -94.3220   25.9677   -1.2904 O   0  0  0  0  0  0  0  0  0  0  0  0
  -92.2608   25.0255   -1.2148 O   0  0  0  0  0  0  0  0  0  0  0  0
  -94.8540   25.1796   -1.6859 H   0  0  0  0  0  0  0  0  0  0  0  0
  -91.4432   27.2053   -2.9997 C   0  0  0  0  0  0  0  0  0  0  0  0
  -92.4470   26.6921   -4.4002 S   0  0  0  0  0  0  0  0  0  0  0  0
  -92.4713   27.7727   -5.3302 H   0  0  0  0  0  0  0  0  0  0  0  0
  -89.5163   26.5220    2.1530 C   0  0  0  0  0  0  0  0  0  0  0  0
  -89.7146   25.1667    1.5129 C   0  0  0  0  0  0  0  0  0  0  0  0
  -90.5760   28.0326    3.8452 C   0  0  0  0  0  0  0  0  0  0  0  0
  -90.1581   26.6326    3.4823 C   0  0  0  0  0  0  0  0  0  0  0  0
  -87.2534   29.3792   -1.0289 C   0  0  0  0  0  0  0  0  0  0  0  0
  -86.9023   30.7235   -0.5270 C   0  0  0  0  0  0  0  0  0  0  0  0
  -87.7879   31.6138   -0.4083 O   0  0  0  0  0  0  0  0  0  0  0  0
  -85.5575   31.0209   -0.1745 N   0  0  0  0  0  0  0  0  0  0  0  0
  -84.8253   30.3016   -0.2649 H   0  0  0  0  0  0  0  0  0  0  0  0
  -85.2296   32.3543    0.3156 C   0  0  0  0  0  0  0  0  0  0  0  0
  -84.4934   33.0389   -0.7626 C   0  0  0  0  0  0  0  0  0  0  0  0
  -85.1809   33.4386   -1.9077 O   0  0  0  0  0  0  0  0  0  0  0  0
  -83.2574   33.2952   -0.7230 O   0  0  0  0  0  0  0  0  0  0  0  0
  -85.0863   34.3905   -2.1916 H   0  0  0  0  0  0  0  0  0  0  0  0
  -84.4314   32.3034    1.6001 C   0  0  0  0  0  0  0  0  0  0  0  0
  -84.0899   30.9086    1.9706 C   0  0  0  0  0  0  0  0  0  0  0  0
  -82.9170   30.2863    1.5985 C   0  0  0  0  0  0  0  0  0  0  0  0
  -82.6401   28.9837    1.9545 C   0  0  0  0  0  0  0  0  0  0  0  0
  -83.5206   28.2259    2.7042 C   0  0  0  0  0  0  0  0  0  0  0  0
  -83.2341   26.9160    3.0577 O   0  0  0  0  0  0  0  0  0  0  0  0
  -84.7030   28.8412    3.0840 C   0  0  0  0  0  0  0  0  0  0  0  0
  -84.9822   30.1431    2.7299 C   0  0  0  0  0  0  0  0  0  0  0  0
  -82.7531   26.7639    3.9144 H   0  0  0  0  0  0  0  0  0  0  0  0
 20 21  1  0  0  0
 21 18  1  0  0  0
 18 19  1  0  0  0
 18  5  1  0  0  0
  5  6  1  0  0  0
  6  7  1  0  0  0
  7  8  2  0  0  0
  7 10  1  0  0  0
 10 15  1  0  0  0
 15 16  1  0  0  0
 10 11  1  0  0  0
 11 12  1  0  0  0
 11 13  2  0  0  0
  5  1  1  0  0  0
  1  2  2  0  0  0
  1  3  1  0  0  0
  3 22  1  0  0  0
 22 23  1  0  0  0
 23 24  2  0  0  0
 23 25  1  0  0  0
 25 27  1  0  0  0
 27 32  1  0  0  0
 32 33  1  0  0  0
 33 34  2  0  0  0
 34 35  1  0  0  0
 35 36  2  0  0  0
 36 37  1  0  0  0
 36 38  1  0  0  0
 38 39  2  0  0  0
 27 28  1  0  0  0
 28 29  1  0  0  0
 28 30  2  0  0  0
 39 33  1  0  0  0
  6  9  1  0  0  0
 16 17  1  0  0  0
 12 14  1  0  0  0
  3  4  1  0  0  0
 25 26  1  0  0  0
 37 40  1  0  0  0
 29 31  1  0  0  0
M  END
> <minimizedAffinity>
-8.06471

> <CNNscore>
0.2928674519

> <CNNaffinity>
6.1804685593

> <CNN_VS>
1.8100581169

> <CNNaffinity_variance>
0.1039216518

$$$$
[H]OC(=O)C([H])(C(=O)N([H])[C@]([H])(C(=O)N([H])C([H])([H])C(=O)N([H])[C@]([H])(C(=O)O[H])C([H])([H])c1c([H])c([H])c(O[H])c([H])c1[H])[C@]([H])(C([H])([H])[H])C([H])([H])C([H])([H])[H])C([H])([H])S[H]


 40 40  0  0  0  0  0  0  0  0999 V2000
  -88.6646   33.7130   -2.9268 C   0  0  0  0  0  0  0  0  0  0  0  0
  -89.2557   33.6452   -1.8127 O   0  0  0  0  0  0  0  0  0  0  0  0
  -87.2877   33.9780   -2.9421 N   0  0  0  0  0  0  0  0  0  0  0  0
  -86.8236   34.0232   -3.9006 H   0  0  0  0  0  0  0  0  0  0  0  0
  -89.5039   33.4963   -4.1435 C   0  0  0  0  0  0  0  0  0  0  0  0
  -90.5715   32.5604   -3.7595 N   0  0  0  0  0  0  0  0  0  0  0  0
  -90.5339   31.1897   -4.1192 C   0  0  0  0  0  0  0  0  0  0  0  0
  -89.5392   30.7780   -4.7912 O   0  0  0  0  0  0  0  0  0  0  0  0
  -91.3800   32.9044   -3.2094 H   0  0  0  0  0  0  0  0  0  0  0  0
  -91.6292   30.3004   -3.7122 C   0  0  0  0  0  0  0  0  0  0  0  0
  -92.2334   29.6149   -4.8549 C   0  0  0  0  0  0  0  0  0  0  0  0
  -92.0895   28.2428   -4.9925 O   0  0  0  0  0  0  0  0  0  0  0  0
  -92.8789   30.2428   -5.7127 O   0  0  0  0  0  0  0  0  0  0  0  0
  -92.8804   27.6412   -5.2628 H   0  0  0  0  0  0  0  0  0  0  0  0
  -92.6620   31.0241   -2.8679 C   0  0  0  0  0  0  0  0  0  0  0  0
  -93.8525   29.8417   -2.2222 S   0  0  0  0  0  0  0  0  0  0  0  0
  -93.6950   29.8039   -0.8055 H   0  0  0  0  0  0  0  0  0  0  0  0
  -90.1103   34.8221   -4.5280 C   0  0  0  0  0  0  0  0  0  0  0  0
  -91.5321   34.6773   -5.0214 C   0  0  0  0  0  0  0  0  0  0  0  0
  -89.6737   35.5215   -6.8920 C   0  0  0  0  0  0  0  0  0  0  0  0
  -89.2566   35.6070   -5.4481 C   0  0  0  0  0  0  0  0  0  0  0  0
  -86.5524   34.1662   -1.7316 C   0  0  0  0  0  0  0  0  0  0  0  0
  -85.9311   32.9447   -1.1801 C   0  0  0  0  0  0  0  0  0  0  0  0
  -84.6793   32.8682   -1.0457 O   0  0  0  0  0  0  0  0  0  0  0  0
  -86.7459   31.8444   -0.7975 N   0  0  0  0  0  0  0  0  0  0  0  0
  -87.7699   31.8954   -0.9003 H   0  0  0  0  0  0  0  0  0  0  0  0
  -86.1143   30.6459   -0.2586 C   0  0  0  0  0  0  0  0  0  0  0  0
  -87.0229   29.5192   -0.5379 C   0  0  0  0  0  0  0  0  0  0  0  0
  -86.6879   28.6076   -1.5381 O   0  0  0  0  0  0  0  0  0  0  0  0
  -88.1069   29.3155    0.0771 O   0  0  0  0  0  0  0  0  0  0  0  0
  -86.6918   27.6394   -1.2974 H   0  0  0  0  0  0  0  0  0  0  0  0
  -85.8183   30.7794    1.2194 C   0  0  0  0  0  0  0  0  0  0  0  0
  -84.8130   29.7833    1.6625 C   0  0  0  0  0  0  0  0  0  0  0  0
  -83.4516   29.9891    1.5885 C   0  0  0  0  0  0  0  0  0  0  0  0
  -82.5479   29.0337    2.0018 C   0  0  0  0  0  0  0  0  0  0  0  0
  -82.9528   27.8150    2.5139 C   0  0  0  0  0  0  0  0  0  0  0  0
  -82.0368   26.8593    2.9270 O   0  0  0  0  0  0  0  0  0  0  0  0
  -84.3192   27.5969    2.5931 C   0  0  0  0  0  0  0  0  0  0  0  0
  -85.2246   28.5502    2.1811 C   0  0  0  0  0  0  0  0  0  0  0  0
  -81.7394   26.8850    3.8754 H   0  0  0  0  0  0  0  0  0  0  0  0
 20 21  1  0  0  0
 21 18  1  0  0  0
 18 19  1  0  0  0
 18  5  1  0  0  0
  5  6  1  0  0  0
  6  7  1  0  0  0
  7  8  2  0  0  0
  7 10  1  0  0  0
 10 15  1  0  0  0
 15 16  1  0  0  0
 10 11  1  0  0  0
 11 12  1  0  0  0
 11 13  2  0  0  0
  5  1  1  0  0  0
  1  2  2  0  0  0
  1  3  1  0  0  0
  3 22  1  0  0  0
 22 23  1  0  0  0
 23 24  2  0  0  0
 23 25  1  0  0  0
 25 27  1  0  0  0
 27 32  1  0  0  0
 32 33  1  0  0  0
 33 34  2  0  0  0
 34 35  1  0  0  0
 35 36  2  0  0  0
 36 37  1  0  0  0
 36 38  1  0  0  0
 38 39  2  0  0  0
 27 28  1  0  0  0
 28 29  1  0  0  0
 28 30  2  0  0  0
 39 33  1  0  0  0
  6  9  1  0  0  0
 16 17  1  0  0  0
 12 14  1  0  0  0
  3  4  1  0  0  0
 25 26  1  0  0  0
 37 40  1  0  0  0
 29 31  1  0  0  0
M  END
> <minimizedAffinity>
-7.26324

> <CNNscore>
0.2548989058

> <CNNaffinity>
5.7599821091

> <CNN_VS>
1.4682130814

> <CNNaffinity_variance>
0.2293079197

$$$$
[H]OC(=O)C([H])(C(=O)N([H])[C@]([H])(C(=O)N([H])C([H])([H])C(=O)N([H])[C@]([H])(C(=O)O[H])C([H])([H])c1c([H])c([H])c(O[H])c([H])c1[H])[C@]([H])(C([H])([H])[H])C([H])([H])C([H])([H])[H])C([H])([H])S[H]


 40 40  0  0  0  0  0  0  0  0999 V2000
  -88.5115   28.1458    0.6433 C   0  0  0  0  0  0  0  0  0  0  0  0
  -89.6517   28.5091    1.0473 O   0  0  0  0  0  0  0  0  0  0  0  0
  -88.0398   26.8781    1.0134 N   0  0  0  0  0  0  0  0  0  0  0  0
  -87.0757   26.6056    0.6496 H   0  0  0  0  0  0  0  0  0  0  0  0
  -87.7628   29.1178   -0.2090 C   0  0  0  0  0  0  0  0  0  0  0  0
  -86.3565   29.0580    0.2172 N   0  0  0  0  0  0  0  0  0  0  0  0
  -85.6290   30.2219    0.5716 C   0  0  0  0  0  0  0  0  0  0  0  0
  -86.2288   31.3388    0.5143 O   0  0  0  0  0  0  0  0  0  0  0  0
  -85.8742   28.1415    0.2625 H   0  0  0  0  0  0  0  0  0  0  0  0
  -84.2254   30.1044    0.9864 C   0  0  0  0  0  0  0  0  0  0  0  0
  -84.0469   29.1094    2.0443 C   0  0  0  0  0  0  0  0  0  0  0  0
  -82.7788   28.6303    2.3353 O   0  0  0  0  0  0  0  0  0  0  0  0
  -85.0173   28.6810    2.6935 O   0  0  0  0  0  0  0  0  0  0  0  0
  -82.4545   28.5152    3.3059 H   0  0  0  0  0  0  0  0  0  0  0  0
  -83.6311   31.4498    1.3605 C   0  0  0  0  0  0  0  0  0  0  0  0
  -82.8526   32.1898   -0.0812 S   0  0  0  0  0  0  0  0  0  0  0  0
  -83.5956   33.3594   -0.4177 H   0  0  0  0  0  0  0  0  0  0  0  0
  -87.8755   28.6584   -1.6407 C   0  0  0  0  0  0  0  0  0  0  0  0
  -87.6809   29.7931   -2.6207 C   0  0  0  0  0  0  0  0  0  0  0  0
  -90.2012   28.6562   -2.5679 C   0  0  0  0  0  0  0  0  0  0  0  0
  -89.1013   27.8714   -1.9040 C   0  0  0  0  0  0  0  0  0  0  0  0
  -88.8215   26.0014    1.8269 C   0  0  0  0  0  0  0  0  0  0  0  0
  -89.7114   25.0854    1.0843 C   0  0  0  0  0  0  0  0  0  0  0  0
  -90.9638   25.2251    1.1397 O   0  0  0  0  0  0  0  0  0  0  0  0
  -89.1569   24.0369    0.3008 N   0  0  0  0  0  0  0  0  0  0  0  0
  -88.1353   23.9136    0.2457 H   0  0  0  0  0  0  0  0  0  0  0  0
  -90.0512   23.1407   -0.4222 C   0  0  0  0  0  0  0  0  0  0  0  0
  -89.6974   21.7666   -0.0224 C   0  0  0  0  0  0  0  0  0  0  0  0
  -88.3558   21.4376    0.1661 O   0  0  0  0  0  0  0  0  0  0  0  0
  -90.5406   20.8454    0.1657 O   0  0  0  0  0  0  0  0  0  0  0  0
  -88.1058   21.0057    1.0300 H   0  0  0  0  0  0  0  0  0  0  0  0
  -89.9560   23.3351   -1.9199 C   0  0  0  0  0  0  0  0  0  0  0  0
  -91.2425   23.8059   -2.4878 C   0  0  0  0  0  0  0  0  0  0  0  0
  -92.1666   22.9701   -3.0785 C   0  0  0  0  0  0  0  0  0  0  0  0
  -93.3479   23.4478   -3.6042 C   0  0  0  0  0  0  0  0  0  0  0  0
  -93.6751   24.7906   -3.5703 C   0  0  0  0  0  0  0  0  0  0  0  0
  -94.8658   25.2626   -4.1019 O   0  0  0  0  0  0  0  0  0  0  0  0
  -92.7537   25.6403   -2.9788 C   0  0  0  0  0  0  0  0  0  0  0  0
  -91.5724   25.1655   -2.4522 C   0  0  0  0  0  0  0  0  0  0  0  0
  -95.6558   25.3036   -3.4996 H   0  0  0  0  0  0  0  0  0  0  0  0
 20 21  1  0  0  0
 21 18  1  0  0  0
 18 19  1  0  0  0
 18  5  1  0  0  0
  5  6  1  0  0  0
  6  7  1  0  0  0
  7  8  2  0  0  0
  7 10  1  0  0  0
 10 15  1  0  0  0
 15 16  1  0  0  0
 10 11  1  0  0  0
 11 12  1  0  0  0
 11 13  2  0  0  0
  5  1  1  0  0  0
  1  2  2  0  0  0
  1  3  1  0  0  0
  3 22  1  0  0  0
 22 23  1  0  0  0
 23 24  2  0  0  0
 23 25  1  0  0  0
 25 27  1  0  0  0
 27 32  1  0  0  0
 32 33  1  0  0  0
 33 34  2  0  0  0
 34 35  1  0  0  0
 35 36  2  0  0  0
 36 37  1  0  0  0
 36 38  1  0  0  0
 38 39  2  0  0  0
 27 28  1  0  0  0
 28 29  1  0  0  0
 28 30  2  0  0  0
 39 33  1  0  0  0
  6  9  1  0  0  0
 16 17  1  0  0  0
 12 14  1  0  0  0
  3  4  1  0  0  0
 25 26  1  0  0  0
 37 40  1  0  0  0
 29 31  1  0  0  0
M  END
> <minimizedAffinity>
-7.36857

> <CNNscore>
0.2136262953

> <CNNaffinity>
5.7339262962

> <CNN_VS>
1.2249174118

> <CNNaffinity_variance>
0.2159730494

$$$$
[H]OC(=O)C([H])(C(=O)N([H])[C@]([H])(C(=O)N([H])C([H])([H])C(=O)N([H])[C@]([H])(C(=O)O[H])C([H])([H])c1c([H])c([H])c(O[H])c([H])c1[H])[C@]([H])(C([H])([H])[H])C([H])([H])C([H])([H])[H])C([H])([H])S[H]


 40 40  0  0  0  0  0  0  0  0999 V2000
  -87.4572   33.8264   -3.3367 C   0  0  0  0  0  0  0  0  0  0  0  0
  -88.2631   34.3247   -2.5016 O   0  0  0  0  0  0  0  0  0  0  0  0
  -86.1809   33.4479   -2.8956 N   0  0  0  0  0  0  0  0  0  0  0  0
  -85.5310   33.0274   -3.6283 H   0  0  0  0  0  0  0  0  0  0  0  0
  -87.9514   33.6817   -4.7390 C   0  0  0  0  0  0  0  0  0  0  0  0
  -89.2737   33.0430   -4.6574 N   0  0  0  0  0  0  0  0  0  0  0  0
  -89.4442   31.6456   -4.8231 C   0  0  0  0  0  0  0  0  0  0  0  0
  -88.4115   30.9424   -5.0458 O   0  0  0  0  0  0  0  0  0  0  0  0
  -90.1122   33.6243   -4.4739 H   0  0  0  0  0  0  0  0  0  0  0  0
  -90.7885   31.0612   -4.7353 C   0  0  0  0  0  0  0  0  0  0  0  0
  -91.8350   32.0492   -4.9986 C   0  0  0  0  0  0  0  0  0  0  0  0
  -91.7880   32.8142   -6.1541 O   0  0  0  0  0  0  0  0  0  0  0  0
  -92.7739   32.2185   -4.2008 O   0  0  0  0  0  0  0  0  0  0  0  0
  -92.6292   32.9853   -6.7231 H   0  0  0  0  0  0  0  0  0  0  0  0
  -91.0053   30.3349   -3.4205 C   0  0  0  0  0  0  0  0  0  0  0  0
  -90.2720   31.2802   -2.0785 S   0  0  0  0  0  0  0  0  0  0  0  0
  -91.3339   31.7301   -1.2399 H   0  0  0  0  0  0  0  0  0  0  0  0
  -88.0948   35.0645   -5.3228 C   0  0  0  0  0  0  0  0  0  0  0  0
  -87.0780   36.0303   -4.7578 C   0  0  0  0  0  0  0  0  0  0  0  0
  -89.6376   36.8051   -4.3960 C   0  0  0  0  0  0  0  0  0  0  0  0
  -89.4804   35.5817   -5.2591 C   0  0  0  0  0  0  0  0  0  0  0  0
  -85.7855   33.6120   -1.5325 C   0  0  0  0  0  0  0  0  0  0  0  0
  -86.0987   32.4709   -0.6481 C   0  0  0  0  0  0  0  0  0  0  0  0
  -87.2947   32.1989   -0.3537 O   0  0  0  0  0  0  0  0  0  0  0  0
  -85.0478   31.6711   -0.1219 N   0  0  0  0  0  0  0  0  0  0  0  0
  -84.0668   31.8818   -0.3566 H   0  0  0  0  0  0  0  0  0  0  0  0
  -85.3763   30.5514    0.7521 C   0  0  0  0  0  0  0  0  0  0  0  0
  -84.4242   30.5909    1.8768 C   0  0  0  0  0  0  0  0  0  0  0  0
  -84.0596   31.8239    2.4159 O   0  0  0  0  0  0  0  0  0  0  0  0
  -83.9032   29.5658    2.3989 O   0  0  0  0  0  0  0  0  0  0  0  0
  -84.1512   31.9389    3.4027 H   0  0  0  0  0  0  0  0  0  0  0  0
  -85.3283   29.2290    0.0180 C   0  0  0  0  0  0  0  0  0  0  0  0
  -86.6895   28.7495   -0.3235 C   0  0  0  0  0  0  0  0  0  0  0  0
  -87.6740   28.5183    0.6138 C   0  0  0  0  0  0  0  0  0  0  0  0
  -88.9252   28.0627    0.2572 C   0  0  0  0  0  0  0  0  0  0  0  0
  -89.2659   27.8112   -1.0589 C   0  0  0  0  0  0  0  0  0  0  0  0
  -90.5270   27.3527   -1.4088 O   0  0  0  0  0  0  0  0  0  0  0  0
  -88.2841   28.0402   -2.0100 C   0  0  0  0  0  0  0  0  0  0  0  0
  -87.0328   28.4958   -1.6564 C   0  0  0  0  0  0  0  0  0  0  0  0
  -91.2248   28.0313   -1.6116 H   0  0  0  0  0  0  0  0  0  0  0  0
 20 21  1  0  0  0
 21 18  1  0  0  0
 18 19  1  0  0  0
 18  5  1  0  0  0
  5  6  1  0  0  0
  6  7  1  0  0  0
  7  8  2  0  0  0
  7 10  1  0  0  0
 10 15  1  0  0  0
 15 16  1  0  0  0
 10 11  1  0  0  0
 11 12  1  0  0  0
 11 13  2  0  0  0
  5  1  1  0  0  0
  1  2  2  0  0  0
  1  3  1  0  0  0
  3 22  1  0  0  0
 22 23  1  0  0  0
 23 24  2  0  0  0
 23 25  1  0  0  0
 25 27  1  0  0  0
 27 32  1  0  0  0
 32 33  1  0  0  0
 33 34  2  0  0  0
 34 35  1  0  0  0
 35 36  2  0  0  0
 36 37  1  0  0  0
 36 38  1  0  0  0
 38 39  2  0  0  0
 27 28  1  0  0  0
 28 29  1  0  0  0
 28 30  2  0  0  0
 39 33  1  0  0  0
  6  9  1  0  0  0
 16 17  1  0  0  0
 12 14  1  0  0  0
  3  4  1  0  0  0
 25 26  1  0  0  0
 37 40  1  0  0  0
 29 31  1  0  0  0
M  END
> <minimizedAffinity>
-6.86370

> <CNNscore>
0.1802583337

> <CNNaffinity>
5.4916954041

> <CNN_VS>
0.9899238348

> <CNNaffinity_variance>
0.7213848829

$$$$
[H]OC(=O)C([H])(C(=O)N([H])[C@]([H])(C(=O)N([H])C([H])([H])C(=O)N([H])[C@]([H])(C(=O)O[H])C([H])([H])c1c([H])c([H])c(O[H])c([H])c1[H])[C@]([H])(C([H])([H])[H])C([H])([H])C([H])([H])[H])C([H])([H])S[H]


 40 40  0  0  0  0  0  0  0  0999 V2000
  -88.7177   31.3840   -4.1711 C   0  0  0  0  0  0  0  0  0  0  0  0
  -88.0735   30.6462   -4.9685 O   0  0  0  0  0  0  0  0  0  0  0  0
  -89.3795   30.7869   -3.0886 N   0  0  0  0  0  0  0  0  0  0  0  0
  -89.9085   31.4425   -2.4356 H   0  0  0  0  0  0  0  0  0  0  0  0
  -88.7091   32.8496   -4.4609 C   0  0  0  0  0  0  0  0  0  0  0  0
  -90.1149   33.2659   -4.5762 N   0  0  0  0  0  0  0  0  0  0  0  0
  -90.5085   34.3686   -5.3754 C   0  0  0  0  0  0  0  0  0  0  0  0
  -89.6050   35.0006   -6.0036 O   0  0  0  0  0  0  0  0  0  0  0  0
  -90.8471   32.7435   -4.0608 H   0  0  0  0  0  0  0  0  0  0  0  0
  -91.9264   34.7428   -5.4513 C   0  0  0  0  0  0  0  0  0  0  0  0
  -92.2680   35.7968   -4.4956 C   0  0  0  0  0  0  0  0  0  0  0  0
  -91.2840   36.6596   -4.0377 O   0  0  0  0  0  0  0  0  0  0  0  0
  -93.4326   35.9361   -4.0821 O   0  0  0  0  0  0  0  0  0  0  0  0
  -91.4482   37.6733   -3.9595 H   0  0  0  0  0  0  0  0  0  0  0  0
  -92.8380   33.5364   -5.3222 C   0  0  0  0  0  0  0  0  0  0  0  0
  -93.2273   32.8941   -6.9557 S   0  0  0  0  0  0  0  0  0  0  0  0
  -92.6350   31.6013   -7.0613 H   0  0  0  0  0  0  0  0  0  0  0  0
  -88.0712   33.5484   -3.2870 C   0  0  0  0  0  0  0  0  0  0  0  0
  -86.6988   32.9975   -2.9724 C   0  0  0  0  0  0  0  0  0  0  0  0
  -88.4025   32.9100   -0.8888 C   0  0  0  0  0  0  0  0  0  0  0  0
  -88.9533   33.6142   -2.1000 C   0  0  0  0  0  0  0  0  0  0  0  0
  -89.3333   29.3749   -2.8751 C   0  0  0  0  0  0  0  0  0  0  0  0
  -88.1843   28.8997   -2.0772 C   0  0  0  0  0  0  0  0  0  0  0  0
  -87.1549   28.4440   -2.6462 O   0  0  0  0  0  0  0  0  0  0  0  0
  -88.2349   28.9538   -0.6576 N   0  0  0  0  0  0  0  0  0  0  0  0
  -89.0693   29.3258   -0.1810 H   0  0  0  0  0  0  0  0  0  0  0  0
  -87.0927   28.4769    0.1129 C   0  0  0  0  0  0  0  0  0  0  0  0
  -87.4263   27.1188    0.5792 C   0  0  0  0  0  0  0  0  0  0  0  0
  -87.8346   26.9346    1.8995 O   0  0  0  0  0  0  0  0  0  0  0  0
  -87.3675   26.0872   -0.1468 O   0  0  0  0  0  0  0  0  0  0  0  0
  -88.6876   26.4399    2.0518 H   0  0  0  0  0  0  0  0  0  0  0  0
  -86.7607   29.4029    1.2627 C   0  0  0  0  0  0  0  0  0  0  0  0
  -85.4833   30.1192    1.0297 C   0  0  0  0  0  0  0  0  0  0  0  0
  -84.2791   29.7279    1.5757 C   0  0  0  0  0  0  0  0  0  0  0  0
  -83.1138   30.4265    1.3432 C   0  0  0  0  0  0  0  0  0  0  0  0
  -83.0839   31.5588    0.5504 C   0  0  0  0  0  0  0  0  0  0  0  0
  -81.9070   32.2558    0.3221 O   0  0  0  0  0  0  0  0  0  0  0  0
  -84.2886   31.9616   -0.0039 C   0  0  0  0  0  0  0  0  0  0  0  0
  -85.4548   31.2650    0.2265 C   0  0  0  0  0  0  0  0  0  0  0  0
  -81.3566   31.9877   -0.4613 H   0  0  0  0  0  0  0  0  0  0  0  0
 20 21  1  0  0  0
 21 18  1  0  0  0
 18 19  1  0  0  0
 18  5  1  0  0  0
  5  6  1  0  0  0
  6  7  1  0  0  0
  7  8  2  0  0  0
  7 10  1  0  0  0
 10 15  1  0  0  0
 15 16  1  0  0  0
 10 11  1  0  0  0
 11 12  1  0  0  0
 11 13  2  0  0  0
  5  1  1  0  0  0
  1  2  2  0  0  0
  1  3  1  0  0  0
  3 22  1  0  0  0
 22 23  1  0  0  0
 23 24  2  0  0  0
 23 25  1  0  0  0
 25 27  1  0  0  0
 27 32  1  0  0  0
 32 33  1  0  0  0
 33 34  2  0  0  0
 34 35  1  0  0  0
 35 36  2  0  0  0
 36 37  1  0  0  0
 36 38  1  0  0  0
 38 39  2  0  0  0
 27 28  1  0  0  0
 28 29  1  0  0  0
 28 30  2  0  0  0
 39 33  1  0  0  0
  6  9  1  0  0  0
 16 17  1  0  0  0
 12 14  1  0  0  0
  3  4  1  0  0  0
 25 26  1  0  0  0
 37 40  1  0  0  0
 29 31  1  0  0  0
M  END
> <minimizedAffinity>
-6.70076

> <CNNscore>
0.1254397035

> <CNNaffinity>
5.5751123428

> <CNN_VS>
0.6993404627

> <CNNaffinity_variance>
0.1452957243

$$$$
[H]OC(=O)C([H])(C(=O)N([H])[C@]([H])(C(=O)N([H])C([H])([H])C(=O)N([H])[C@]([H])(C(=O)O[H])C([H])([H])c1c([H])c([H])c(O[H])c([H])c1[H])[C@]([H])(C([H])([H])[H])C([H])([H])C([H])([H])[H])C([H])([H])S[H]


 40 40  0  0  0  0  0  0  0  0999 V2000
  -90.8765   26.2507    0.2958 C   0  0  0  0  0  0  0  0  0  0  0  0
  -90.0363   25.8637   -0.5642 O   0  0  0  0  0  0  0  0  0  0  0  0
  -91.8900   27.1333   -0.1045 N   0  0  0  0  0  0  0  0  0  0  0  0
  -92.5824   27.4338    0.6482 H   0  0  0  0  0  0  0  0  0  0  0  0
  -90.7091   25.7180    1.6814 C   0  0  0  0  0  0  0  0  0  0  0  0
  -90.1110   24.3808    1.5509 N   0  0  0  0  0  0  0  0  0  0  0  0
  -90.8061   23.2064    1.9344 C   0  0  0  0  0  0  0  0  0  0  0  0
  -91.9796   23.3350    2.4003 O   0  0  0  0  0  0  0  0  0  0  0  0
  -89.1525   24.2842    1.1681 H   0  0  0  0  0  0  0  0  0  0  0  0
  -90.1592   21.8966    1.7857 C   0  0  0  0  0  0  0  0  0  0  0  0
  -90.4117   21.3056    0.4713 C   0  0  0  0  0  0  0  0  0  0  0  0
  -90.4722   19.9272    0.3337 O   0  0  0  0  0  0  0  0  0  0  0  0
  -90.5747   22.0199   -0.5336 O   0  0  0  0  0  0  0  0  0  0  0  0
  -91.2012   19.4727   -0.2342 H   0  0  0  0  0  0  0  0  0  0  0  0
  -90.5245   20.9531    2.9169 C   0  0  0  0  0  0  0  0  0  0  0  0
  -89.0273   20.3281    3.6915 S   0  0  0  0  0  0  0  0  0  0  0  0
  -88.9859   20.8403    5.0216 H   0  0  0  0  0  0  0  0  0  0  0  0
  -89.7550   26.6275    2.4134 C   0  0  0  0  0  0  0  0  0  0  0  0
  -88.3862   26.0064    2.5758 C   0  0  0  0  0  0  0  0  0  0  0  0
  -90.7902   26.0775    4.6257 C   0  0  0  0  0  0  0  0  0  0  0  0
  -90.3075   27.1484    3.6841 C   0  0  0  0  0  0  0  0  0  0  0  0
  -91.9872   27.5922   -1.4541 C   0  0  0  0  0  0  0  0  0  0  0  0
  -91.3414   28.8938   -1.7208 C   0  0  0  0  0  0  0  0  0  0  0  0
  -91.4701   29.8504   -0.9088 O   0  0  0  0  0  0  0  0  0  0  0  0
  -90.5688   29.0746   -2.9003 N   0  0  0  0  0  0  0  0  0  0  0  0
  -90.4543   28.3002   -3.5705 H   0  0  0  0  0  0  0  0  0  0  0  0
  -89.9419   30.3674   -3.1481 C   0  0  0  0  0  0  0  0  0  0  0  0
  -90.6263   30.9604   -4.3113 C   0  0  0  0  0  0  0  0  0  0  0  0
  -91.1824   30.1196   -5.2744 O   0  0  0  0  0  0  0  0  0  0  0  0
  -90.7479   32.2028   -4.5029 O   0  0  0  0  0  0  0  0  0  0  0  0
  -92.1380   30.2698   -5.5188 H   0  0  0  0  0  0  0  0  0  0  0  0
  -88.4515   30.2381   -3.3756 C   0  0  0  0  0  0  0  0  0  0  0  0
  -87.7131   30.1544   -2.0922 C   0  0  0  0  0  0  0  0  0  0  0  0
  -87.4795   31.2400   -1.2747 C   0  0  0  0  0  0  0  0  0  0  0  0
  -86.7796   31.1233   -0.0929 C   0  0  0  0  0  0  0  0  0  0  0  0
  -86.2715   29.9131    0.3415 C   0  0  0  0  0  0  0  0  0  0  0  0
  -85.5682   29.8048    1.5317 O   0  0  0  0  0  0  0  0  0  0  0  0
  -86.5002   28.8147   -0.4723 C   0  0  0  0  0  0  0  0  0  0  0  0
  -87.1998   28.9284   -1.6538 C   0  0  0  0  0  0  0  0  0  0  0  0
  -86.0860   29.6077    2.3573 H   0  0  0  0  0  0  0  0  0  0  0  0
 20 21  1  0  0  0
 21 18  1  0  0  0
 18 19  1  0  0  0
 18  5  1  0  0  0
  5  6  1  0  0  0
  6  7  1  0  0  0
  7  8  2  0  0  0
  7 10  1  0  0  0
 10 15  1  0  0  0
 15 16  1  0  0  0
 10 11  1  0  0  0
 11 12  1  0  0  0
 11 13  2  0  0  0
  5  1  1  0  0  0
  1  2  2  0  0  0
  1  3  1  0  0  0
  3 22  1  0  0  0
 22 23  1  0  0  0
 23 24  2  0  0  0
 23 25  1  0  0  0
 25 27  1  0  0  0
 27 32  1  0  0  0
 32 33  1  0  0  0
 33 34  2  0  0  0
 34 35  1  0  0  0
 35 36  2  0  0  0
 36 37  1  0  0  0
 36 38  1  0  0  0
 38 39  2  0  0  0
 27 28  1  0  0  0
 28 29  1  0  0  0
 28 30  2  0  0  0
 39 33  1  0  0  0
  6  9  1  0  0  0
 16 17  1  0  0  0
 12 14  1  0  0  0
  3  4  1  0  0  0
 25 26  1  0  0  0
 37 40  1  0  0  0
 29 31  1  0  0  0
M  END
> <minimizedAffinity>
-7.10637

> <CNNscore>
0.1071162969

> <CNNaffinity>
5.4728550911

> <CNN_VS>
0.5862319469

> <CNNaffinity_variance>
0.1168911234

$$$$
[H]OC(=O)C([H])(C(=O)N([H])[C@]([H])(C(=O)N([H])C([H])([H])C(=O)N([H])[C@]([H])(C(=O)O[H])C([H])([H])c1c([H])c([H])c(O[H])c([H])c1[H])[C@]([H])(C([H])([H])[H])C([H])([H])C([H])([H])[H])C([H])([H])S[H]


 40 40  0  0  0  0  0  0  0  0999 V2000
  -89.7330   29.9016   -2.6030 C   0  0  0  0  0  0  0  0  0  0  0  0
  -90.0727   28.9813   -3.3985 O   0  0  0  0  0  0  0  0  0  0  0  0
  -88.5306   29.7673   -1.8939 N   0  0  0  0  0  0  0  0  0  0  0  0
  -88.2758   30.5661   -1.2359 H   0  0  0  0  0  0  0  0  0  0  0  0
  -90.6599   31.0682   -2.4948 C   0  0  0  0  0  0  0  0  0  0  0  0
  -89.9150   32.2451   -2.9671 N   0  0  0  0  0  0  0  0  0  0  0  0
  -89.2121   33.0958   -2.0774 C   0  0  0  0  0  0  0  0  0  0  0  0
  -89.2376   32.8143   -0.8402 O   0  0  0  0  0  0  0  0  0  0  0  0
  -89.8981   32.4674   -3.9795 H   0  0  0  0  0  0  0  0  0  0  0  0
  -88.4879   34.2599   -2.6033 C   0  0  0  0  0  0  0  0  0  0  0  0
  -89.2767   34.9972   -3.5906 C   0  0  0  0  0  0  0  0  0  0  0  0
  -90.6527   35.0891   -3.4465 O   0  0  0  0  0  0  0  0  0  0  0  0
  -88.7341   35.5481   -4.5647 O   0  0  0  0  0  0  0  0  0  0  0  0
  -91.1537   35.9759   -3.5985 H   0  0  0  0  0  0  0  0  0  0  0  0
  -87.1171   33.8816   -3.1335 C   0  0  0  0  0  0  0  0  0  0  0  0
  -86.0313   33.4652   -1.7623 S   0  0  0  0  0  0  0  0  0  0  0  0
  -85.7206   32.0775   -1.8666 H   0  0  0  0  0  0  0  0  0  0  0  0
  -91.8314   30.8131   -3.4090 C   0  0  0  0  0  0  0  0  0  0  0  0
  -91.8854   31.7975   -4.5552 C   0  0  0  0  0  0  0  0  0  0  0  0
  -93.4443   29.2963   -2.2400 C   0  0  0  0  0  0  0  0  0  0  0  0
  -93.1182   30.6965   -2.6864 C   0  0  0  0  0  0  0  0  0  0  0  0
  -87.6932   28.6214   -2.0589 C   0  0  0  0  0  0  0  0  0  0  0  0
  -87.3319   27.9246   -0.8074 C   0  0  0  0  0  0  0  0  0  0  0  0
  -87.2868   26.6647   -0.7665 O   0  0  0  0  0  0  0  0  0  0  0  0
  -87.0329   28.6752    0.3622 N   0  0  0  0  0  0  0  0  0  0  0  0
  -87.0641   29.7049    0.3411 H   0  0  0  0  0  0  0  0  0  0  0  0
  -86.6820   27.9697    1.5889 C   0  0  0  0  0  0  0  0  0  0  0  0
  -87.9007   27.2821    2.0524 C   0  0  0  0  0  0  0  0  0  0  0  0
  -87.8728   25.9007    2.2386 O   0  0  0  0  0  0  0  0  0  0  0  0
  -88.9927   27.8669    2.2985 O   0  0  0  0  0  0  0  0  0  0  0  0
  -88.1825   25.5495    3.1196 H   0  0  0  0  0  0  0  0  0  0  0  0
  -86.1278   28.9064    2.6404 C   0  0  0  0  0  0  0  0  0  0  0  0
  -85.0420   29.7546    2.0919 C   0  0  0  0  0  0  0  0  0  0  0  0
  -85.2284   31.0544    1.6711 C   0  0  0  0  0  0  0  0  0  0  0  0
  -84.1948   31.8079    1.1572 C   0  0  0  0  0  0  0  0  0  0  0  0
  -82.9127   31.3055    1.0336 C   0  0  0  0  0  0  0  0  0  0  0  0
  -81.8787   32.0705    0.5152 O   0  0  0  0  0  0  0  0  0  0  0  0
  -82.7134   29.9998    1.4535 C   0  0  0  0  0  0  0  0  0  0  0  0
  -83.7446   29.2445    1.9678 C   0  0  0  0  0  0  0  0  0  0  0  0
  -81.3435   32.6150    1.1521 H   0  0  0  0  0  0  0  0  0  0  0  0
 20 21  1  0  0  0
 21 18  1  0  0  0
 18 19  1  0  0  0
 18  5  1  0  0  0
  5  6  1  0  0  0
  6  7  1  0  0  0
  7  8  2  0  0  0
  7 10  1  0  0  0
 10 15  1  0  0  0
 15 16  1  0  0  0
 10 11  1  0  0  0
 11 12  1  0  0  0
 11 13  2  0  0  0
  5  1  1  0  0  0
  1  2  2  0  0  0
  1  3  1  0  0  0
  3 22  1  0  0  0
 22 23  1  0  0  0
 23 24  2  0  0  0
 23 25  1  0  0  0
 25 27  1  0  0  0
 27 32  1  0  0  0
 32 33  1  0  0  0
 33 34  2  0  0  0
 34 35  1  0  0  0
 35 36  2  0  0  0
 36 37  1  0  0  0
 36 38  1  0  0  0
 38 39  2  0  0  0
 27 28  1  0  0  0
 28 29  1  0  0  0
 28 30  2  0  0  0
 39 33  1  0  0  0
  6  9  1  0  0  0
 16 17  1  0  0  0
 12 14  1  0  0  0
  3  4  1  0  0  0
 25 26  1  0  0  0
 37 40  1  0  0  0
 29 31  1  0  0  0
M  END
> <minimizedAffinity>
-7.42657

> <CNNscore>
0.0954037681

> <CNNaffinity>
5.4254226685

> <CNN_VS>
0.5176057816

> <CNNaffinity_variance>
0.5053545237

$$$$
[H]c1nc2c(c([H])c1[H])C([H])([H])N(C(=O)c1c([H])c([H])c3nnn([C@]([H])(C([H])([H])[H])C([H])([H])C([H])(C([H])([H])[H])C([H])([H])[H])c3c1[H])C2([H])[H]


 26 29  0  0  0  0  0  0  0  0999 V2000
  -84.9631   32.6746   -0.9057 N   0  0  0  0  0  0  0  0  0  0  0  0
  -83.9407   33.4857   -0.9005 N   0  0  0  0  0  0  0  0  0  0  0  0
  -82.9423   33.1041   -0.1735 N   0  0  0  0  0  0  0  0  0  0  0  0
  -83.2837   31.9264    0.3832 C   0  0  0  0  0  0  0  0  0  0  0  0
  -82.6560   31.0549    1.2355 C   0  0  0  0  0  0  0  0  0  0  0  0
  -83.3156   29.8865    1.6378 C   0  0  0  0  0  0  0  0  0  0  0  0
  -84.5820   29.6007    1.1922 C   0  0  0  0  0  0  0  0  0  0  0  0
  -85.2024   30.5155    0.3158 C   0  0  0  0  0  0  0  0  0  0  0  0
  -84.5554   31.6485   -0.0722 C   0  0  0  0  0  0  0  0  0  0  0  0
  -85.3259   28.4258    1.5859 C   0  0  0  0  0  0  0  0  0  0  0  0
  -84.6463   27.5512    2.2709 O   0  0  0  0  0  0  0  0  0  0  0  0
  -86.6631   28.0802    1.3454 N   0  0  0  0  0  0  0  0  0  0  0  0
  -87.7212   28.7216    0.6407 C   0  0  0  0  0  0  0  0  0  0  0  0
  -88.8022   27.7077    0.4855 C   0  0  0  0  0  0  0  0  0  0  0  0
  -89.9736   27.7466   -0.2489 C   0  0  0  0  0  0  0  0  0  0  0  0
  -90.8047   26.6280   -0.2131 C   0  0  0  0  0  0  0  0  0  0  0  0
  -90.4743   25.5195    0.5271 C   0  0  0  0  0  0  0  0  0  0  0  0
  -89.3127   25.5509    1.2217 N   0  0  0  0  0  0  0  0  0  0  0  0
  -88.4835   26.6004    1.2185 C   0  0  0  0  0  0  0  0  0  0  0  0
  -87.2100   26.8197    1.8982 C   0  0  0  0  0  0  0  0  0  0  0  0
  -86.2486   32.7047   -1.5363 C   0  0  0  0  0  0  0  0  0  0  0  0
  -86.5158   33.8167   -2.4981 C   0  0  0  0  0  0  0  0  0  0  0  0
  -87.3910   32.3871   -0.6528 C   0  0  0  0  0  0  0  0  0  0  0  0
  -88.3990   30.8137   -2.1776 C   0  0  0  0  0  0  0  0  0  0  0  0
  -88.6896   32.0129   -1.2295 C   0  0  0  0  0  0  0  0  0  0  0  0
  -89.7852   31.5313   -0.3398 C   0  0  0  0  0  0  0  0  0  0  0  0
 24 25  1  0  0  0
 25 26  1  0  0  0
 25 23  1  0  0  0
 23 21  1  0  0  0
 21 22  1  0  0  0
 21  1  1  0  0  0
  1  2  1  0  0  0
  2  3  2  0  0  0
  3  4  1  0  0  0
  4  5  2  0  0  0
  5  6  1  0  0  0
  6  7  2  0  0  0
  7  8  1  0  0  0
  8  9  2  0  0  0
  7 10  1  0  0  0
 10 11  2  0  0  0
 10 12  1  0  0  0
 12 13  1  0  0  0
 13 14  1  0  0  0
 14 15  2  0  0  0
 15 16  1  0  0  0
 16 17  2  0  0  0
 17 18  1  0  0  0
 18 19  2  0  0  0
 19 20  1  0  0  0
  9  1  1  0  0  0
 20 12  1  0  0  0
  9  4  1  0  0  0
 19 14  1  0  0  0
M  END
> <minimizedAffinity>
-9.05994

> <CNNscore>
0.9184955955

> <CNNaffinity>
7.3341369629

> <CNN_VS>
6.7363724709

> <CNNaffinity_variance>
0.1502186507

$$$$
[H]c1nc2c(c([H])c1[H])C([H])([H])N(C(=O)c1c([H])c([H])c3nnn([C@]([H])(C([H])([H])[H])C([H])([H])C([H])(C([H])([H])[H])C([H])([H])[H])c3c1[H])C2([H])[H]


 26 29  0  0  0  0  0  0  0  0999 V2000
  -85.8139   27.5029    1.6669 N   0  0  0  0  0  0  0  0  0  0  0  0
  -85.1021   26.7014    2.4114 N   0  0  0  0  0  0  0  0  0  0  0  0
  -83.9238   27.1376    2.7148 N   0  0  0  0  0  0  0  0  0  0  0  0
  -83.7875   28.3471    2.1385 C   0  0  0  0  0  0  0  0  0  0  0  0
  -82.7814   29.2777    2.0969 C   0  0  0  0  0  0  0  0  0  0  0  0
  -82.9682   30.4653    1.3781 C   0  0  0  0  0  0  0  0  0  0  0  0
  -84.1436   30.7117    0.7134 C   0  0  0  0  0  0  0  0  0  0  0  0
  -85.1608   29.7364    0.7745 C   0  0  0  0  0  0  0  0  0  0  0  0
  -84.9733   28.5850    1.4758 C   0  0  0  0  0  0  0  0  0  0  0  0
  -84.3919   31.9046   -0.0638 C   0  0  0  0  0  0  0  0  0  0  0  0
  -83.4418   32.7942   -0.0206 O   0  0  0  0  0  0  0  0  0  0  0  0
  -85.4949   32.2540   -0.8555 N   0  0  0  0  0  0  0  0  0  0  0  0
  -86.7244   31.6001   -1.1525 C   0  0  0  0  0  0  0  0  0  0  0  0
  -87.5998   32.6179   -1.7993 C   0  0  0  0  0  0  0  0  0  0  0  0
  -88.9391   32.5662   -2.1410 C   0  0  0  0  0  0  0  0  0  0  0  0
  -89.5056   33.6925   -2.7359 C   0  0  0  0  0  0  0  0  0  0  0  0
  -88.7606   34.8205   -2.9770 C   0  0  0  0  0  0  0  0  0  0  0  0
  -87.4556   34.8008   -2.6168 N   0  0  0  0  0  0  0  0  0  0  0  0
  -86.8680   33.7447   -2.0439 C   0  0  0  0  0  0  0  0  0  0  0  0
  -85.4936   33.5357   -1.5977 C   0  0  0  0  0  0  0  0  0  0  0  0
  -87.1247   27.4217    1.0957 C   0  0  0  0  0  0  0  0  0  0  0  0
  -87.2467   27.6413   -0.3773 C   0  0  0  0  0  0  0  0  0  0  0  0
  -88.1978   28.0589    1.8889 C   0  0  0  0  0  0  0  0  0  0  0  0
  -90.5940   27.7969    1.8083 C   0  0  0  0  0  0  0  0  0  0  0  0
  -89.2867   27.2454    2.4472 C   0  0  0  0  0  0  0  0  0  0  0  0
  -89.3284   25.7787    2.1809 C   0  0  0  0  0  0  0  0  0  0  0  0
 24 25  1  0  0  0
 25 26  1  0  0  0
 25 23  1  0  0  0
 23 21  1  0  0  0
 21 22  1  0  0  0
 21  1  1  0  0  0
  1  2  1  0  0  0
  2  3  2  0  0  0
  3  4  1  0  0  0
  4  5  2  0  0  0
  5  6  1  0  0  0
  6  7  2  0  0  0
  7  8  1  0  0  0
  8  9  2  0  0  0
  7 10  1  0  0  0
 10 11  2  0  0  0
 10 12  1  0  0  0
 12 13  1  0  0  0
 13 14  1  0  0  0
 14 15  2  0  0  0
 15 16  1  0  0  0
 16 17  2  0  0  0
 17 18  1  0  0  0
 18 19  2  0  0  0
 19 20  1  0  0  0
  9  1  1  0  0  0
 20 12  1  0  0  0
  9  4  1  0  0  0
 19 14  1  0  0  0
M  END
> <minimizedAffinity>
-9.11585

> <CNNscore>
0.8708589077

> <CNNaffinity>
7.4751610756

> <CNN_VS>
6.5098104477

> <CNNaffinity_variance>
0.5231523514

$$$$
[H]c1nc2c(c([H])c1[H])C([H])([H])N(C(=O)c1c([H])c([H])c3nnn([C@]([H])(C([H])([H])[H])C([H])([H])C([H])(C([H])([H])[H])C([H])([H])[H])c3c1[H])C2([H])[H]


 26 29  0  0  0  0  0  0  0  0999 V2000
  -85.8073   27.5478    1.6934 N   0  0  0  0  0  0  0  0  0  0  0  0
  -85.0926   26.7444    2.4330 N   0  0  0  0  0  0  0  0  0  0  0  0
  -83.9047   27.1698    2.7138 N   0  0  0  0  0  0  0  0  0  0  0  0
  -83.7643   28.3729    2.1254 C   0  0  0  0  0  0  0  0  0  0  0  0
  -82.7486   29.2918    2.0600 C   0  0  0  0  0  0  0  0  0  0  0  0
  -82.9338   30.4755    1.3345 C   0  0  0  0  0  0  0  0  0  0  0  0
  -84.1170   30.7298    0.6867 C   0  0  0  0  0  0  0  0  0  0  0  0
  -85.1439   29.7665    0.7722 C   0  0  0  0  0  0  0  0  0  0  0  0
  -84.9579   28.6188    1.4799 C   0  0  0  0  0  0  0  0  0  0  0  0
  -84.3645   31.9191   -0.0962 C   0  0  0  0  0  0  0  0  0  0  0  0
  -83.4041   32.7983   -0.0755 O   0  0  0  0  0  0  0  0  0  0  0  0
  -85.4760   32.2745   -0.8731 N   0  0  0  0  0  0  0  0  0  0  0  0
  -86.7174   31.6319   -1.1450 C   0  0  0  0  0  0  0  0  0  0  0  0
  -87.5917   32.6543   -1.7862 C   0  0  0  0  0  0  0  0  0  0  0  0
  -88.9368   32.6148   -2.1061 C   0  0  0  0  0  0  0  0  0  0  0  0
  -89.5003   33.7426   -2.7012 C   0  0  0  0  0  0  0  0  0  0  0  0
  -88.7467   34.8602   -2.9634 C   0  0  0  0  0  0  0  0  0  0  0  0
  -87.4365   34.8288   -2.6238 N   0  0  0  0  0  0  0  0  0  0  0  0
  -86.8515   33.7708   -2.0517 C   0  0  0  0  0  0  0  0  0  0  0  0
  -85.4725   33.5501   -1.6258 C   0  0  0  0  0  0  0  0  0  0  0  0
  -87.1280   27.4768    1.1440 C   0  0  0  0  0  0  0  0  0  0  0  0
  -88.2732   27.6980    2.0782 C   0  0  0  0  0  0  0  0  0  0  0  0
  -87.3479   26.3841    0.1723 C   0  0  0  0  0  0  0  0  0  0  0  0
  -89.1867   26.5743   -1.3766 C   0  0  0  0  0  0  0  0  0  0  0  0
  -87.6418   26.6934   -1.2337 C   0  0  0  0  0  0  0  0  0  0  0  0
  -87.3172   28.0425   -1.7800 C   0  0  0  0  0  0  0  0  0  0  0  0
 24 25  1  0  0  0
 25 26  1  0  0  0
 25 23  1  0  0  0
 23 21  1  0  0  0
 21 22  1  0  0  0
 21  1  1  0  0  0
  1  2  1  0  0  0
  2  3  2  0  0  0
  3  4  1  0  0  0
  4  5  2  0  0  0
  5  6  1  0  0  0
  6  7  2  0  0  0
  7  8  1  0  0  0
  8  9  2  0  0  0
  7 10  1  0  0  0
 10 11  2  0  0  0
 10 12  1  0  0  0
 12 13  1  0  0  0
 13 14  1  0  0  0
 14 15  2  0  0  0
 15 16  1  0  0  0
 16 17  2  0  0  0
 17 18  1  0  0  0
 18 19  2  0  0  0
 19 20  1  0  0  0
  9  1  1  0  0  0
 20 12  1  0  0  0
  9  4  1  0  0  0
 19 14  1  0  0  0
M  END
> <minimizedAffinity>
-9.39180

> <CNNscore>
0.8031679988

> <CNNaffinity>
7.1987228394

> <CNN_VS>
5.7817835808

> <CNNaffinity_variance>
0.3649377227

$$$$
[H]c1nc2c(c([H])c1[H])C([H])([H])N(C(=O)c1c([H])c([H])c3nnn([C@]([H])(C([H])([H])[H])C([H])([H])C([H])(C([H])([H])[H])C([H])([H])[H])c3c1[H])C2([H])[H]


 26 29  0  0  0  0  0  0  0  0999 V2000
  -85.3583   32.8303   -0.9913 N   0  0  0  0  0  0  0  0  0  0  0  0
  -84.3542   33.6620   -1.0489 N   0  0  0  0  0  0  0  0  0  0  0  0
  -83.2984   33.2920   -0.4015 N   0  0  0  0  0  0  0  0  0  0  0  0
  -83.5753   32.1007    0.1621 C   0  0  0  0  0  0  0  0  0  0  0  0
  -82.8704   31.2316    0.9545 C   0  0  0  0  0  0  0  0  0  0  0  0
  -83.4760   30.0451    1.3871 C   0  0  0  0  0  0  0  0  0  0  0  0
  -84.7657   29.7389    1.0305 C   0  0  0  0  0  0  0  0  0  0  0  0
  -85.4658   30.6516    0.2142 C   0  0  0  0  0  0  0  0  0  0  0  0
  -84.8711   31.8024   -0.2038 C   0  0  0  0  0  0  0  0  0  0  0  0
  -85.4558   28.5442    1.4607 C   0  0  0  0  0  0  0  0  0  0  0  0
  -84.7176   27.6877    2.1069 O   0  0  0  0  0  0  0  0  0  0  0  0
  -86.7941   28.1629    1.2907 N   0  0  0  0  0  0  0  0  0  0  0  0
  -87.9049   28.7761    0.6444 C   0  0  0  0  0  0  0  0  0  0  0  0
  -88.9651   27.7335    0.5447 C   0  0  0  0  0  0  0  0  0  0  0  0
  -90.1744   27.7414   -0.1265 C   0  0  0  0  0  0  0  0  0  0  0  0
  -90.9722   26.6008   -0.0490 C   0  0  0  0  0  0  0  0  0  0  0  0
  -90.5734   25.5012    0.6704 C   0  0  0  0  0  0  0  0  0  0  0  0
  -89.3777   25.5633    1.3024 N   0  0  0  0  0  0  0  0  0  0  0  0
  -88.5783   26.6347    1.2575 C   0  0  0  0  0  0  0  0  0  0  0  0
  -87.2770   26.8877    1.8691 C   0  0  0  0  0  0  0  0  0  0  0  0
  -86.6865   32.8418   -1.5267 C   0  0  0  0  0  0  0  0  0  0  0  0
  -87.8105   32.5673   -0.5810 C   0  0  0  0  0  0  0  0  0  0  0  0
  -86.8393   32.1918   -2.8461 C   0  0  0  0  0  0  0  0  0  0  0  0
  -88.2829   31.4538   -4.6316 C   0  0  0  0  0  0  0  0  0  0  0  0
  -87.9892   31.3159   -3.1098 C   0  0  0  0  0  0  0  0  0  0  0  0
  -87.8704   29.8470   -2.8820 C   0  0  0  0  0  0  0  0  0  0  0  0
 24 25  1  0  0  0
 25 26  1  0  0  0
 25 23  1  0  0  0
 23 21  1  0  0  0
 21 22  1  0  0  0
 21  1  1  0  0  0
  1  2  1  0  0  0
  2  3  2  0  0  0
  3  4  1  0  0  0
  4  5  2  0  0  0
  5  6  1  0  0  0
  6  7  2  0  0  0
  7  8  1  0  0  0
  8  9  2  0  0  0
  7 10  1  0  0  0
 10 11  2  0  0  0
 10 12  1  0  0  0
 12 13  1  0  0  0
 13 14  1  0  0  0
 14 15  2  0  0  0
 15 16  1  0  0  0
 16 17  2  0  0  0
 17 18  1  0  0  0
 18 19  2  0  0  0
 19 20  1  0  0  0
  9  1  1  0  0  0
 20 12  1  0  0  0
  9  4  1  0  0  0
 19 14  1  0  0  0
M  END
> <minimizedAffinity>
-8.90710

> <CNNscore>
0.7189243436

> <CNNaffinity>
6.9857788086

> <CNN_VS>
5.0222463608

> <CNNaffinity_variance>
0.2447567284

$$$$
[H]c1nc2c(c([H])c1[H])C([H])([H])N(C(=O)c1c([H])c([H])c3nnn([C@]([H])(C([H])([H])[H])C([H])([H])C([H])(C([H])([H])[H])C([H])([H])[H])c3c1[H])C2([H])[H]


 26 29  0  0  0  0  0  0  0  0999 V2000
  -84.4392   31.9570    0.6454 N   0  0  0  0  0  0  0  0  0  0  0  0
  -83.4927   32.7611    0.2441 N   0  0  0  0  0  0  0  0  0  0  0  0
  -83.7868   33.4813   -0.7882 N   0  0  0  0  0  0  0  0  0  0  0  0
  -85.0442   33.1624   -1.1497 C   0  0  0  0  0  0  0  0  0  0  0  0
  -85.8853   33.5780   -2.1497 C   0  0  0  0  0  0  0  0  0  0  0  0
  -87.1662   33.0205   -2.2510 C   0  0  0  0  0  0  0  0  0  0  0  0
  -87.5927   32.0632   -1.3645 C   0  0  0  0  0  0  0  0  0  0  0  0
  -86.7059   31.6560   -0.3460 C   0  0  0  0  0  0  0  0  0  0  0  0
  -85.4628   32.2026   -0.2523 C   0  0  0  0  0  0  0  0  0  0  0  0
  -88.8915   31.4324   -1.4269 C   0  0  0  0  0  0  0  0  0  0  0  0
  -89.1058   30.5283   -0.5143 O   0  0  0  0  0  0  0  0  0  0  0  0
  -89.9555   31.6406   -2.3156 N   0  0  0  0  0  0  0  0  0  0  0  0
  -90.1287   32.4954   -3.4412 C   0  0  0  0  0  0  0  0  0  0  0  0
  -91.3568   32.0269   -4.1435 C   0  0  0  0  0  0  0  0  0  0  0  0
  -91.8892   32.3935   -5.3663 C   0  0  0  0  0  0  0  0  0  0  0  0
  -93.0651   31.7697   -5.7805 C   0  0  0  0  0  0  0  0  0  0  0  0
  -93.6791   30.8200   -5.0015 C   0  0  0  0  0  0  0  0  0  0  0  0
  -93.1025   30.5104   -3.8163 N   0  0  0  0  0  0  0  0  0  0  0  0
  -91.9758   31.0815   -3.3767 C   0  0  0  0  0  0  0  0  0  0  0  0
  -91.2186   30.8865   -2.1436 C   0  0  0  0  0  0  0  0  0  0  0  0
  -84.5413   30.9964    1.7027 C   0  0  0  0  0  0  0  0  0  0  0  0
  -84.8285   31.5135    3.0750 C   0  0  0  0  0  0  0  0  0  0  0  0
  -83.5364   29.9121    1.6675 C   0  0  0  0  0  0  0  0  0  0  0  0
  -84.9493   27.9816    1.9737 C   0  0  0  0  0  0  0  0  0  0  0  0
  -83.6978   28.7270    2.5210 C   0  0  0  0  0  0  0  0  0  0  0  0
  -82.6284   27.6883    2.5579 C   0  0  0  0  0  0  0  0  0  0  0  0
 24 25  1  0  0  0
 25 26  1  0  0  0
 25 23  1  0  0  0
 23 21  1  0  0  0
 21 22  1  0  0  0
 21  1  1  0  0  0
  1  2  1  0  0  0
  2  3  2  0  0  0
  3  4  1  0  0  0
  4  5  2  0  0  0
  5  6  1  0  0  0
  6  7  2  0  0  0
  7  8  1  0  0  0
  8  9  2  0  0  0
  7 10  1  0  0  0
 10 11  2  0  0  0
 10 12  1  0  0  0
 12 13  1  0  0  0
 13 14  1  0  0  0
 14 15  2  0  0  0
 15 16  1  0  0  0
 16 17  2  0  0  0
 17 18  1  0  0  0
 18 19  2  0  0  0
 19 20  1  0  0  0
  9  1  1  0  0  0
 20 12  1  0  0  0
  9  4  1  0  0  0
 19 14  1  0  0  0
M  END
> <minimizedAffinity>
-8.60714

> <CNNscore>
0.6009122133

> <CNNaffinity>
6.5198960304

> <CNN_VS>
3.9178850651

> <CNNaffinity_variance>
0.2205042541

$$$$
[H]c1nc2c(c([H])c1[H])C([H])([H])N(C(=O)c1c([H])c([H])c3nnn([C@]([H])(C([H])([H])[H])C([H])([H])C([H])(C([H])([H])[H])C([H])([H])[H])c3c1[H])C2([H])[H]


 26 29  0  0  0  0  0  0  0  0999 V2000
  -85.0242   28.3721    1.4729 N   0  0  0  0  0  0  0  0  0  0  0  0
  -85.2617   27.4760    2.3916 N   0  0  0  0  0  0  0  0  0  0  0  0
  -86.3300   26.7721    2.2071 N   0  0  0  0  0  0  0  0  0  0  0  0
  -86.8976   27.2037    1.0646 C   0  0  0  0  0  0  0  0  0  0  0  0
  -88.0256   26.8554    0.3672 C   0  0  0  0  0  0  0  0  0  0  0  0
  -88.3402   27.5305   -0.8190 C   0  0  0  0  0  0  0  0  0  0  0  0
  -87.5365   28.5368   -1.2941 C   0  0  0  0  0  0  0  0  0  0  0  0
  -86.3826   28.8727   -0.5558 C   0  0  0  0  0  0  0  0  0  0  0  0
  -86.0819   28.2119    0.5956 C   0  0  0  0  0  0  0  0  0  0  0  0
  -87.8156   29.2872   -2.4973 C   0  0  0  0  0  0  0  0  0  0  0  0
  -87.9785   28.5644   -3.5683 O   0  0  0  0  0  0  0  0  0  0  0  0
  -87.9374   30.6702   -2.6921 N   0  0  0  0  0  0  0  0  0  0  0  0
  -87.8160   31.7890   -1.8197 C   0  0  0  0  0  0  0  0  0  0  0  0
  -87.7507   32.9981   -2.6884 C   0  0  0  0  0  0  0  0  0  0  0  0
  -87.4755   34.3169   -2.3755 C   0  0  0  0  0  0  0  0  0  0  0  0
  -87.4738   35.2480   -3.4132 C   0  0  0  0  0  0  0  0  0  0  0  0
  -87.7365   34.8714   -4.7073 C   0  0  0  0  0  0  0  0  0  0  0  0
  -87.9978   33.5637   -4.9408 N   0  0  0  0  0  0  0  0  0  0  0  0
  -88.0110   32.6345   -3.9788 C   0  0  0  0  0  0  0  0  0  0  0  0
  -88.2735   31.1994   -4.0339 C   0  0  0  0  0  0  0  0  0  0  0  0
  -83.9976   29.3533    1.2878 C   0  0  0  0  0  0  0  0  0  0  0  0
  -82.7123   29.1496    2.0225 C   0  0  0  0  0  0  0  0  0  0  0  0
  -84.4635   30.7566    1.2702 C   0  0  0  0  0  0  0  0  0  0  0  0
  -85.1910   32.7840    0.1852 C   0  0  0  0  0  0  0  0  0  0  0  0
  -84.1568   31.6229    0.1237 C   0  0  0  0  0  0  0  0  0  0  0  0
  -82.8326   32.3036    0.0417 C   0  0  0  0  0  0  0  0  0  0  0  0
 24 25  1  0  0  0
 25 26  1  0  0  0
 25 23  1  0  0  0
 23 21  1  0  0  0
 21 22  1  0  0  0
 21  1  1  0  0  0
  1  2  1  0  0  0
  2  3  2  0  0  0
  3  4  1  0  0  0
  4  5  2  0  0  0
  5  6  1  0  0  0
  6  7  2  0  0  0
  7  8  1  0  0  0
  8  9  2  0  0  0
  7 10  1  0  0  0
 10 11  2  0  0  0
 10 12  1  0  0  0
 12 13  1  0  0  0
 13 14  1  0  0  0
 14 15  2  0  0  0
 15 16  1  0  0  0
 16 17  2  0  0  0
 17 18  1  0  0  0
 18 19  2  0  0  0
 19 20  1  0  0  0
  9  1  1  0  0  0
 20 12  1  0  0  0
  9  4  1  0  0  0
 19 14  1  0  0  0
M  END
> <minimizedAffinity>
-9.07922

> <CNNscore>
0.5502705574

> <CNNaffinity>
6.7429227829

> <CNN_VS>
3.7104318142

> <CNNaffinity_variance>
0.1234952062

$$$$
[H]c1nc2c(c([H])c1[H])C([H])([H])N(C(=O)c1c([H])c([H])c3nnn([C@]([H])(C([H])([H])[H])C([H])([H])C([H])(C([H])([H])[H])C([H])([H])[H])c3c1[H])C2([H])[H]


 26 29  0  0  0  0  0  0  0  0999 V2000
  -85.9519   27.3189    1.7942 N   0  0  0  0  0  0  0  0  0  0  0  0
  -84.7320   27.2043    2.2438 N   0  0  0  0  0  0  0  0  0  0  0  0
  -83.9922   28.2537    2.0945 N   0  0  0  0  0  0  0  0  0  0  0  0
  -84.7481   29.1895    1.4892 C   0  0  0  0  0  0  0  0  0  0  0  0
  -84.5234   30.4765    1.0729 C   0  0  0  0  0  0  0  0  0  0  0  0
  -85.5552   31.1916    0.4518 C   0  0  0  0  0  0  0  0  0  0  0  0
  -86.7887   30.6232    0.2525 C   0  0  0  0  0  0  0  0  0  0  0  0
  -86.9906   29.2981    0.6918 C   0  0  0  0  0  0  0  0  0  0  0  0
  -85.9840   28.6091    1.2958 C   0  0  0  0  0  0  0  0  0  0  0  0
  -87.8875   31.2973   -0.4009 C   0  0  0  0  0  0  0  0  0  0  0  0
  -89.0601   30.7761   -0.1784 O   0  0  0  0  0  0  0  0  0  0  0  0
  -87.8886   32.4227   -1.2368 N   0  0  0  0  0  0  0  0  0  0  0  0
  -86.8533   33.2610   -1.7398 C   0  0  0  0  0  0  0  0  0  0  0  0
  -87.4649   34.0890   -2.8173 C   0  0  0  0  0  0  0  0  0  0  0  0
  -86.8826   34.9455   -3.7340 C   0  0  0  0  0  0  0  0  0  0  0  0
  -87.7159   35.5898   -4.6473 C   0  0  0  0  0  0  0  0  0  0  0  0
  -89.0734   35.3832   -4.6404 C   0  0  0  0  0  0  0  0  0  0  0  0
  -89.5750   34.5316   -3.7151 N   0  0  0  0  0  0  0  0  0  0  0  0
  -88.8161   33.8911   -2.8191 C   0  0  0  0  0  0  0  0  0  0  0  0
  -89.1697   32.9544   -1.7564 C   0  0  0  0  0  0  0  0  0  0  0  0
  -87.0741   26.4310    1.7361 C   0  0  0  0  0  0  0  0  0  0  0  0
  -87.4893   25.9363    0.3885 C   0  0  0  0  0  0  0  0  0  0  0  0
  -88.2049   26.7867    2.6200 C   0  0  0  0  0  0  0  0  0  0  0  0
  -90.2442   25.6455    3.2163 C   0  0  0  0  0  0  0  0  0  0  0  0
  -89.5883   26.5883    2.1664 C   0  0  0  0  0  0  0  0  0  0  0  0
  -90.5144   27.7538    2.0780 C   0  0  0  0  0  0  0  0  0  0  0  0
 24 25  1  0  0  0
 25 26  1  0  0  0
 25 23  1  0  0  0
 23 21  1  0  0  0
 21 22  1  0  0  0
 21  1  1  0  0  0
  1  2  1  0  0  0
  2  3  2  0  0  0
  3  4  1  0  0  0
  4  5  2  0  0  0
  5  6  1  0  0  0
  6  7  2  0  0  0
  7  8  1  0  0  0
  8  9  2  0  0  0
  7 10  1  0  0  0
 10 11  2  0  0  0
 10 12  1  0  0  0
 12 13  1  0  0  0
 13 14  1  0  0  0
 14 15  2  0  0  0
 15 16  1  0  0  0
 16 17  2  0  0  0
 17 18  1  0  0  0
 18 19  2  0  0  0
 19 20  1  0  0  0
  9  1  1  0  0  0
 20 12  1  0  0  0
  9  4  1  0  0  0
 19 14  1  0  0  0
M  END
> <minimizedAffinity>
-7.97936

> <CNNscore>
0.4763274491

> <CNNaffinity>
6.6313295364

> <CNN_VS>
3.1586842537

> <CNNaffinity_variance>
0.3518506587

$$$$
[H]c1nc2c(c([H])c1[H])C([H])([H])N(C(=O)c1c([H])c([H])c3nnn([C@]([H])(C([H])([H])[H])C([H])([H])C([H])(C([H])([H])[H])C([H])([H])[H])c3c1[H])C2([H])[H]


 26 29  0  0  0  0  0  0  0  0999 V2000
  -84.4385   30.4296    1.3847 N   0  0  0  0  0  0  0  0  0  0  0  0
  -83.1418   30.5482    1.4727 N   0  0  0  0  0  0  0  0  0  0  0  0
  -82.6276   31.4899    0.7518 N   0  0  0  0  0  0  0  0  0  0  0  0
  -83.6416   32.0884    0.0983 C   0  0  0  0  0  0  0  0  0  0  0  0
  -83.7225   33.1247   -0.7959 C   0  0  0  0  0  0  0  0  0  0  0  0
  -84.9717   33.5018   -1.3049 C   0  0  0  0  0  0  0  0  0  0  0  0
  -86.1171   32.8489   -0.9229 C   0  0  0  0  0  0  0  0  0  0  0  0
  -86.0029   31.7872   -0.0012 C   0  0  0  0  0  0  0  0  0  0  0  0
  -84.7861   31.4265    0.4906 C   0  0  0  0  0  0  0  0  0  0  0  0
  -87.4323   33.1729   -1.4267 C   0  0  0  0  0  0  0  0  0  0  0  0
  -88.4190   32.6378   -0.7663 O   0  0  0  0  0  0  0  0  0  0  0  0
  -87.8119   33.9716   -2.5145 N   0  0  0  0  0  0  0  0  0  0  0  0
  -87.0735   34.7043   -3.4868 C   0  0  0  0  0  0  0  0  0  0  0  0
  -88.0413   35.0871   -4.5534 C   0  0  0  0  0  0  0  0  0  0  0  0
  -87.8323   35.6628   -5.7935 C   0  0  0  0  0  0  0  0  0  0  0  0
  -88.9450   35.9024   -6.5985 C   0  0  0  0  0  0  0  0  0  0  0  0
  -90.2111   35.5782   -6.1771 C   0  0  0  0  0  0  0  0  0  0  0  0
  -90.3414   35.0177   -4.9516 N   0  0  0  0  0  0  0  0  0  0  0  0
  -89.3047   34.7690   -4.1440 C   0  0  0  0  0  0  0  0  0  0  0  0
  -89.2480   34.1858   -2.8068 C   0  0  0  0  0  0  0  0  0  0  0  0
  -85.3945   29.5410    1.9741 C   0  0  0  0  0  0  0  0  0  0  0  0
  -85.3420   29.3611    3.4566 C   0  0  0  0  0  0  0  0  0  0  0  0
  -85.6357   28.2889    1.2253 C   0  0  0  0  0  0  0  0  0  0  0  0
  -87.8991   28.6315    0.4662 C   0  0  0  0  0  0  0  0  0  0  0  0
  -86.9640   27.6609    1.2438 C   0  0  0  0  0  0  0  0  0  0  0  0
  -87.1678   26.3372    0.5879 C   0  0  0  0  0  0  0  0  0  0  0  0
 24 25  1  0  0  0
 25 26  1  0  0  0
 25 23  1  0  0  0
 23 21  1  0  0  0
 21 22  1  0  0  0
 21  1  1  0  0  0
  1  2  1  0  0  0
  2  3  2  0  0  0
  3  4  1  0  0  0
  4  5  2  0  0  0
  5  6  1  0  0  0
  6  7  2  0  0  0
  7  8  1  0  0  0
  8  9  2  0  0  0
  7 10  1  0  0  0
 10 11  2  0  0  0
 10 12  1  0  0  0
 12 13  1  0  0  0
 13 14  1  0  0  0
 14 15  2  0  0  0
 15 16  1  0  0  0
 16 17  2  0  0  0
 17 18  1  0  0  0
 18 19  2  0  0  0
 19 20  1  0  0  0
  9  1  1  0  0  0
 20 12  1  0  0  0
  9  4  1  0  0  0
 19 14  1  0  0  0
M  END
> <minimizedAffinity>
-8.55881

> <CNNscore>
0.4654984772

> <CNNaffinity>
6.2738313675

> <CNN_VS>
2.9204590321

> <CNNaffinity_variance>
0.2603645325

$$$$
[H]c1nc2c(c([H])c1[H])C([H])([H])N(C(=O)c1c([H])c([H])c3nnn([C@]([H])(C([H])([H])[H])C([H])([H])C([H])(C([H])([H])[H])C([H])([H])[H])c3c1[H])C2([H])[H]


 26 29  0  0  0  0  0  0  0  0999 V2000
  -84.3903   31.9205    0.6180 N   0  0  0  0  0  0  0  0  0  0  0  0
  -83.4388   32.6592    0.1155 N   0  0  0  0  0  0  0  0  0  0  0  0
  -83.7798   33.3692   -0.9093 N   0  0  0  0  0  0  0  0  0  0  0  0
  -85.0789   33.1137   -1.1550 C   0  0  0  0  0  0  0  0  0  0  0  0
  -85.9780   33.5517   -2.0930 C   0  0  0  0  0  0  0  0  0  0  0  0
  -87.2915   33.0658   -2.0706 C   0  0  0  0  0  0  0  0  0  0  0  0
  -87.6927   32.1565   -1.1237 C   0  0  0  0  0  0  0  0  0  0  0  0
  -86.7461   31.7247   -0.1713 C   0  0  0  0  0  0  0  0  0  0  0  0
  -85.4716   32.2017   -0.1980 C   0  0  0  0  0  0  0  0  0  0  0  0
  -89.0247   31.5994   -1.0588 C   0  0  0  0  0  0  0  0  0  0  0  0
  -89.8970   32.3367   -0.4332 O   0  0  0  0  0  0  0  0  0  0  0  0
  -89.5240   30.3901   -1.5625 N   0  0  0  0  0  0  0  0  0  0  0  0
  -88.9238   29.3107   -2.2713 C   0  0  0  0  0  0  0  0  0  0  0  0
  -89.9063   28.1905   -2.2477 C   0  0  0  0  0  0  0  0  0  0  0  0
  -89.7767   26.8715   -2.6433 C   0  0  0  0  0  0  0  0  0  0  0  0
  -90.8800   26.0327   -2.4929 C   0  0  0  0  0  0  0  0  0  0  0  0
  -92.0609   26.4976   -1.9685 C   0  0  0  0  0  0  0  0  0  0  0  0
  -92.1166   27.7999   -1.6025 N   0  0  0  0  0  0  0  0  0  0  0  0
  -91.0855   28.6424   -1.7276 C   0  0  0  0  0  0  0  0  0  0  0  0
  -90.9585   30.0595   -1.4000 C   0  0  0  0  0  0  0  0  0  0  0  0
  -84.4544   30.9937    1.7079 C   0  0  0  0  0  0  0  0  0  0  0  0
  -84.6864   31.5545    3.0735 C   0  0  0  0  0  0  0  0  0  0  0  0
  -83.4553   29.9042    1.6677 C   0  0  0  0  0  0  0  0  0  0  0  0
  -84.8757   27.9757    1.9509 C   0  0  0  0  0  0  0  0  0  0  0  0
  -83.6258   28.7137    2.5117 C   0  0  0  0  0  0  0  0  0  0  0  0
  -82.5597   27.6716    2.5485 C   0  0  0  0  0  0  0  0  0  0  0  0
 24 25  1  0  0  0
 25 26  1  0  0  0
 25 23  1  0  0  0
 23 21  1  0  0  0
 21 22  1  0  0  0
 21  1  1  0  0  0
  1  2  1  0  0  0
  2  3  2  0  0  0
  3  4  1  0  0  0
  4  5  2  0  0  0
  5  6  1  0  0  0
  6  7  2  0  0  0
  7  8  1  0  0  0
  8  9  2  0  0  0
  7 10  1  0  0  0
 10 11  2  0  0  0
 10 12  1  0  0  0
 12 13  1  0  0  0
 13 14  1  0  0  0
 14 15  2  0  0  0
 15 16  1  0  0  0
 16 17  2  0  0  0
 17 18  1  0  0  0
 18 19  2  0  0  0
 19 20  1  0  0  0
  9  1  1  0  0  0
 20 12  1  0  0  0
  9  4  1  0  0  0
 19 14  1  0  0  0
M  END
> <minimizedAffinity>
-9.07028

> <CNNscore>
0.4399530888

> <CNNaffinity>
6.2998762131

> <CNN_VS>
2.7716500759

> <CNNaffinity_variance>
0.2761782110

$$$$
[H]c1c([H])c(N2C([H])([H])C([H])([H])N(c3nc4c([H])c([H])c([H])c([H])c4n3[H])[C@]([H])(C([H])([H])[H])C2([H])[H])c([H])c([H])c1C#N


 25 28  0  0  0  0  0  0  0  0999 V2000
  -88.0059   31.3105   -3.3361 C   0  0  0  0  0  0  0  0  0  0  0  0
  -88.3745   32.7569   -3.1899 C   0  0  0  0  0  0  0  0  0  0  0  0
  -88.9116   33.3632   -4.4848 C   0  0  0  0  0  0  0  0  0  0  0  0
  -89.3504   34.7057   -4.1492 N   0  0  0  0  0  0  0  0  0  0  0  0
  -88.5342   35.4758   -3.2343 C   0  0  0  0  0  0  0  0  0  0  0  0
  -87.1241   34.8863   -3.2893 C   0  0  0  0  0  0  0  0  0  0  0  0
  -87.2605   33.5482   -2.7206 N   0  0  0  0  0  0  0  0  0  0  0  0
  -86.3299   33.0946   -1.7584 C   0  0  0  0  0  0  0  0  0  0  0  0
  -85.0038   33.3103   -1.7267 N   0  0  0  0  0  0  0  0  0  0  0  0
  -84.4281   32.7336   -0.6593 C   0  0  0  0  0  0  0  0  0  0  0  0
  -83.1267   32.6598   -0.1782 C   0  0  0  0  0  0  0  0  0  0  0  0
  -82.8280   31.9653    0.9989 C   0  0  0  0  0  0  0  0  0  0  0  0
  -83.8540   31.3538    1.6736 C   0  0  0  0  0  0  0  0  0  0  0  0
  -85.1477   31.4215    1.2042 C   0  0  0  0  0  0  0  0  0  0  0  0
  -85.4509   32.1141    0.0286 C   0  0  0  0  0  0  0  0  0  0  0  0
  -86.5896   32.3427   -0.6494 N   0  0  0  0  0  0  0  0  0  0  0  0
  -87.5440   32.0116   -0.3978 H   0  0  0  0  0  0  0  0  0  0  0  0
  -90.5390   35.2918   -4.6846 C   0  0  0  0  0  0  0  0  0  0  0  0
  -91.2084   36.2594   -3.9731 C   0  0  0  0  0  0  0  0  0  0  0  0
  -92.3549   36.8702   -4.4347 C   0  0  0  0  0  0  0  0  0  0  0  0
  -92.8424   36.4893   -5.6605 C   0  0  0  0  0  0  0  0  0  0  0  0
  -92.2033   35.5234   -6.4072 C   0  0  0  0  0  0  0  0  0  0  0  0
  -91.0398   34.9206   -5.9110 C   0  0  0  0  0  0  0  0  0  0  0  0
  -94.0433   37.1034   -6.1846 C   0  0  0  0  0  0  0  0  0  0  0  0
  -94.9834   37.6073   -6.5996 N   0  0  0  0  0  0  0  0  0  0  0  0
  1  2  1  0  0  0
  2  3  1  0  0  0
  3  4  1  0  0  0
  4  5  1  0  0  0
  5  6  1  0  0  0
  6  7  1  0  0  0
  7  8  1  0  0  0
  8  9  2  0  0  0
  9 10  1  0  0  0
 10 11  2  0  0  0
 11 12  1  0  0  0
 12 13  2  0  0  0
 13 14  1  0  0  0
 14 15  2  0  0  0
 15 16  1  0  0  0
  4 18  1  0  0  0
 18 19  2  0  0  0
 19 20  1  0  0  0
 20 21  2  0  0  0
 21 22  1  0  0  0
 22 23  2  0  0  0
 21 24  1  0  0  0
 24 25  3  0  0  0
  7  2  1  0  0  0
 16  8  1  0  0  0
 23 18  1  0  0  0
 15 10  1  0  0  0
 16 17  1  0  0  0
M  END
> <minimizedAffinity>
-6.73192

> <CNNscore>
0.4242990613

> <CNNaffinity>
5.6305069923

> <CNN_VS>
2.3890187740

> <CNNaffinity_variance>
0.2102499902

$$$$
[H]c1c([H])c(N2C([H])([H])C([H])([H])N(c3nc4c([H])c([H])c([H])c([H])c4n3[H])[C@]([H])(C([H])([H])[H])C2([H])[H])c([H])c([H])c1C#N


 25 28  0  0  0  0  0  0  0  0999 V2000
  -89.0151   31.2915   -0.7140 C   0  0  0  0  0  0  0  0  0  0  0  0
  -88.3299   32.5416   -1.1800 C   0  0  0  0  0  0  0  0  0  0  0  0
  -88.9009   33.0736   -2.4929 C   0  0  0  0  0  0  0  0  0  0  0  0
  -88.2403   34.3437   -2.7339 N   0  0  0  0  0  0  0  0  0  0  0  0
  -86.8286   34.4414   -2.4277 C   0  0  0  0  0  0  0  0  0  0  0  0
  -86.2666   33.0193   -2.4537 C   0  0  0  0  0  0  0  0  0  0  0  0
  -86.9052   32.3487   -1.3245 N   0  0  0  0  0  0  0  0  0  0  0  0
  -86.1288   31.5660   -0.4402 C   0  0  0  0  0  0  0  0  0  0  0  0
  -86.5598   30.6760    0.4699 N   0  0  0  0  0  0  0  0  0  0  0  0
  -85.5416   30.1075    1.1356 C   0  0  0  0  0  0  0  0  0  0  0  0
  -85.4501   29.1558    2.1438 C   0  0  0  0  0  0  0  0  0  0  0  0
  -84.2094   28.7524    2.6486 C   0  0  0  0  0  0  0  0  0  0  0  0
  -83.0760   29.3200    2.1239 C   0  0  0  0  0  0  0  0  0  0  0  0
  -83.1567   30.2645    1.1240 C   0  0  0  0  0  0  0  0  0  0  0  0
  -84.3941   30.6708    0.6166 C   0  0  0  0  0  0  0  0  0  0  0  0
  -84.7685   31.5476   -0.3319 N   0  0  0  0  0  0  0  0  0  0  0  0
  -84.1436   32.1415   -0.9156 H   0  0  0  0  0  0  0  0  0  0  0  0
  -88.9195   35.4856   -3.2607 C   0  0  0  0  0  0  0  0  0  0  0  0
  -90.1932   35.3565   -3.7622 C   0  0  0  0  0  0  0  0  0  0  0  0
  -90.9067   36.4178   -4.2774 C   0  0  0  0  0  0  0  0  0  0  0  0
  -90.3109   37.6549   -4.2856 C   0  0  0  0  0  0  0  0  0  0  0  0
  -89.0359   37.8295   -3.7930 C   0  0  0  0  0  0  0  0  0  0  0  0
  -88.3359   36.7314   -3.2760 C   0  0  0  0  0  0  0  0  0  0  0  0
  -91.0224   38.7974   -4.8170 C   0  0  0  0  0  0  0  0  0  0  0  0
  -91.5924   39.6892   -5.2525 N   0  0  0  0  0  0  0  0  0  0  0  0
  1  2  1  0  0  0
  2  3  1  0  0  0
  3  4  1  0  0  0
  4  5  1  0  0  0
  5  6  1  0  0  0
  6  7  1  0  0  0
  7  8  1  0  0  0
  8  9  2  0  0  0
  9 10  1  0  0  0
 10 11  2  0  0  0
 11 12  1  0  0  0
 12 13  2  0  0  0
 13 14  1  0  0  0
 14 15  2  0  0  0
 15 16  1  0  0  0
  4 18  1  0  0  0
 18 19  2  0  0  0
 19 20  1  0  0  0
 20 21  2  0  0  0
 21 22  1  0  0  0
 22 23  2  0  0  0
 21 24  1  0  0  0
 24 25  3  0  0  0
  7  2  1  0  0  0
 16  8  1  0  0  0
 23 18  1  0  0  0
 15 10  1  0  0  0
 16 17  1  0  0  0
M  END
> <minimizedAffinity>
-7.87362

> <CNNscore>
0.3819217682

> <CNNaffinity>
5.9898867607

> <CNN_VS>
2.2876682281

> <CNNaffinity_variance>
0.2318854779

$$$$
[H]c1c([H])c(N2C([H])([H])C([H])([H])N(c3nc4c([H])c([H])c([H])c([H])c4n3[H])[C@]([H])(C([H])([H])[H])C2([H])[H])c([H])c([H])c1C#N


 25 28  0  0  0  0  0  0  0  0999 V2000
  -89.9938   27.3249    4.8809 C   0  0  0  0  0  0  0  0  0  0  0  0
  -89.7218   26.8404    3.4878 C   0  0  0  0  0  0  0  0  0  0  0  0
  -90.7859   27.2892    2.4882 C   0  0  0  0  0  0  0  0  0  0  0  0
  -90.3136   26.8686    1.1814 N   0  0  0  0  0  0  0  0  0  0  0  0
  -89.6752   25.5734    1.0769 C   0  0  0  0  0  0  0  0  0  0  0  0
  -90.1607   24.7391    2.2632 C   0  0  0  0  0  0  0  0  0  0  0  0
  -89.5975   25.4018    3.4363 N   0  0  0  0  0  0  0  0  0  0  0  0
  -88.9667   24.6353    4.4423 C   0  0  0  0  0  0  0  0  0  0  0  0
  -88.3915   25.0734    5.5752 N   0  0  0  0  0  0  0  0  0  0  0  0
  -87.8932   24.0635    6.3067 C   0  0  0  0  0  0  0  0  0  0  0  0
  -87.2233   23.9812    7.5211 C   0  0  0  0  0  0  0  0  0  0  0  0
  -86.8186   22.7479    8.0430 C   0  0  0  0  0  0  0  0  0  0  0  0
  -87.0990   21.6127    7.3257 C   0  0  0  0  0  0  0  0  0  0  0  0
  -87.7629   21.6843    6.1205 C   0  0  0  0  0  0  0  0  0  0  0  0
  -88.1689   22.9142    5.5950 C   0  0  0  0  0  0  0  0  0  0  0  0
  -88.8162   23.2793    4.4741 N   0  0  0  0  0  0  0  0  0  0  0  0
  -89.1645   22.6508    3.7208 H   0  0  0  0  0  0  0  0  0  0  0  0
  -90.4578   27.6709    0.0074 C   0  0  0  0  0  0  0  0  0  0  0  0
  -89.8278   27.3026   -1.1579 C   0  0  0  0  0  0  0  0  0  0  0  0
  -89.9313   28.0266   -2.3267 C   0  0  0  0  0  0  0  0  0  0  0  0
  -90.7001   29.1642   -2.3172 C   0  0  0  0  0  0  0  0  0  0  0  0
  -91.3490   29.5702   -1.1713 C   0  0  0  0  0  0  0  0  0  0  0  0
  -91.2244   28.8133    0.0012 C   0  0  0  0  0  0  0  0  0  0  0  0
  -90.8370   29.9553   -3.5210 C   0  0  0  0  0  0  0  0  0  0  0  0
  -90.9646   30.5857   -4.4677 N   0  0  0  0  0  0  0  0  0  0  0  0
  1  2  1  0  0  0
  2  3  1  0  0  0
  3  4  1  0  0  0
  4  5  1  0  0  0
  5  6  1  0  0  0
  6  7  1  0  0  0
  7  8  1  0  0  0
  8  9  2  0  0  0
  9 10  1  0  0  0
 10 11  2  0  0  0
 11 12  1  0  0  0
 12 13  2  0  0  0
 13 14  1  0  0  0
 14 15  2  0  0  0
 15 16  1  0  0  0
  4 18  1  0  0  0
 18 19  2  0  0  0
 19 20  1  0  0  0
 20 21  2  0  0  0
 21 22  1  0  0  0
 22 23  2  0  0  0
 21 24  1  0  0  0
 24 25  3  0  0  0
  7  2  1  0  0  0
 16  8  1  0  0  0
 23 18  1  0  0  0
 15 10  1  0  0  0
 16 17  1  0  0  0
M  END
> <minimizedAffinity>
-6.80118

> <CNNscore>
0.3628631830

> <CNNaffinity>
5.4927511215

> <CNN_VS>
1.9931172132

> <CNNaffinity_variance>
0.1573695987

$$$$
[H]c1c([H])c(N2C([H])([H])C([H])([H])N(c3nc4c([H])c([H])c([H])c([H])c4n3[H])[C@]([H])(C([H])([H])[H])C2([H])[H])c([H])c([H])c1C#N


 25 28  0  0  0  0  0  0  0  0999 V2000
  -84.6092   33.6472   -0.8440 C   0  0  0  0  0  0  0  0  0  0  0  0
  -85.7723   33.0357   -1.5670 C   0  0  0  0  0  0  0  0  0  0  0  0
  -86.8365   34.0627   -1.9485 C   0  0  0  0  0  0  0  0  0  0  0  0
  -87.8128   33.3509   -2.7533 N   0  0  0  0  0  0  0  0  0  0  0  0
  -88.1681   32.0056   -2.3534 C   0  0  0  0  0  0  0  0  0  0  0  0
  -87.8414   31.8812   -0.8645 C   0  0  0  0  0  0  0  0  0  0  0  0
  -86.3859   31.9790   -0.7961 N   0  0  0  0  0  0  0  0  0  0  0  0
  -85.6554   31.0612   -0.0078 C   0  0  0  0  0  0  0  0  0  0  0  0
  -86.1086   29.9517    0.6005 N   0  0  0  0  0  0  0  0  0  0  0  0
  -85.1330   29.3102    1.2636 C   0  0  0  0  0  0  0  0  0  0  0  0
  -85.0772   28.1528    2.0303 C   0  0  0  0  0  0  0  0  0  0  0  0
  -83.8779   27.7247    2.6095 C   0  0  0  0  0  0  0  0  0  0  0  0
  -82.7493   28.4768    2.4035 C   0  0  0  0  0  0  0  0  0  0  0  0
  -82.7947   29.6260    1.6447 C   0  0  0  0  0  0  0  0  0  0  0  0
  -83.9907   30.0577    1.0643 C   0  0  0  0  0  0  0  0  0  0  0  0
  -84.3257   31.1092    0.2956 N   0  0  0  0  0  0  0  0  0  0  0  0
  -83.6937   31.8666   -0.0372 H   0  0  0  0  0  0  0  0  0  0  0  0
  -88.4337   33.9215   -3.9073 C   0  0  0  0  0  0  0  0  0  0  0  0
  -87.7616   34.8583   -4.6565 C   0  0  0  0  0  0  0  0  0  0  0  0
  -88.2990   35.4417   -5.7841 C   0  0  0  0  0  0  0  0  0  0  0  0
  -89.5619   35.0641   -6.1687 C   0  0  0  0  0  0  0  0  0  0  0  0
  -90.2713   34.1287   -5.4471 C   0  0  0  0  0  0  0  0  0  0  0  0
  -89.6982   33.5535   -4.3051 C   0  0  0  0  0  0  0  0  0  0  0  0
  -90.1658   35.6504   -7.3457 C   0  0  0  0  0  0  0  0  0  0  0  0
  -90.6247   36.1187   -8.2838 N   0  0  0  0  0  0  0  0  0  0  0  0
  1  2  1  0  0  0
  2  3  1  0  0  0
  3  4  1  0  0  0
  4  5  1  0  0  0
  5  6  1  0  0  0
  6  7  1  0  0  0
  7  8  1  0  0  0
  8  9  2  0  0  0
  9 10  1  0  0  0
 10 11  2  0  0  0
 11 12  1  0  0  0
 12 13  2  0  0  0
 13 14  1  0  0  0
 14 15  2  0  0  0
 15 16  1  0  0  0
  4 18  1  0  0  0
 18 19  2  0  0  0
 19 20  1  0  0  0
 20 21  2  0  0  0
 21 22  1  0  0  0
 22 23  2  0  0  0
 21 24  1  0  0  0
 24 25  3  0  0  0
  7  2  1  0  0  0
 16  8  1  0  0  0
 23 18  1  0  0  0
 15 10  1  0  0  0
 16 17  1  0  0  0
M  END
> <minimizedAffinity>
-8.33529

> <CNNscore>
0.3484654427

> <CNNaffinity>
5.8420000076

> <CNN_VS>
2.0357351303

> <CNNaffinity_variance>
0.4106788039

$$$$
[H]c1c([H])c(N2C([H])([H])C([H])([H])N(c3nc4c([H])c([H])c([H])c([H])c4n3[H])[C@]([H])(C([H])([H])[H])C2([H])[H])c([H])c([H])c1C#N


 25 28  0  0  0  0  0  0  0  0999 V2000
  -89.4493   27.0134    3.6866 C   0  0  0  0  0  0  0  0  0  0  0  0
  -89.7038   26.0294    2.5837 C   0  0  0  0  0  0  0  0  0  0  0  0
  -90.8882   26.4226    1.7032 C   0  0  0  0  0  0  0  0  0  0  0  0
  -90.9172   25.4623    0.6149 N   0  0  0  0  0  0  0  0  0  0  0  0
  -90.6323   24.0773    0.9263 C   0  0  0  0  0  0  0  0  0  0  0  0
  -90.9221   23.8858    2.4157 C   0  0  0  0  0  0  0  0  0  0  0  0
  -89.9140   24.6946    3.0954 N   0  0  0  0  0  0  0  0  0  0  0  0
  -89.2004   24.1557    4.1899 C   0  0  0  0  0  0  0  0  0  0  0  0
  -88.9469   22.8625    4.4538 N   0  0  0  0  0  0  0  0  0  0  0  0
  -88.2328   22.7123    5.5810 C   0  0  0  0  0  0  0  0  0  0  0  0
  -87.7255   21.6187    6.2719 C   0  0  0  0  0  0  0  0  0  0  0  0
  -86.9971   21.7836    7.4548 C   0  0  0  0  0  0  0  0  0  0  0  0
  -86.7923   23.0569    7.9224 C   0  0  0  0  0  0  0  0  0  0  0  0
  -87.2914   24.1475    7.2443 C   0  0  0  0  0  0  0  0  0  0  0  0
  -88.0199   23.9876    6.0622 C   0  0  0  0  0  0  0  0  0  0  0  0
  -88.6108   24.8441    5.2102 N   0  0  0  0  0  0  0  0  0  0  0  0
  -88.6366   25.8821    5.2851 H   0  0  0  0  0  0  0  0  0  0  0  0
  -91.2179   25.8252   -0.7344 C   0  0  0  0  0  0  0  0  0  0  0  0
  -92.5254   25.9922   -1.1258 C   0  0  0  0  0  0  0  0  0  0  0  0
  -92.8838   26.3489   -2.4084 C   0  0  0  0  0  0  0  0  0  0  0  0
  -91.8840   26.5442   -3.3290 C   0  0  0  0  0  0  0  0  0  0  0  0
  -90.5602   26.3875   -2.9799 C   0  0  0  0  0  0  0  0  0  0  0  0
  -90.2273   26.0242   -1.6682 C   0  0  0  0  0  0  0  0  0  0  0  0
  -92.2137   26.9192   -4.6871 C   0  0  0  0  0  0  0  0  0  0  0  0
  -92.4546   27.2143   -5.7664 N   0  0  0  0  0  0  0  0  0  0  0  0
  1  2  1  0  0  0
  2  3  1  0  0  0
  3  4  1  0  0  0
  4  5  1  0  0  0
  5  6  1  0  0  0
  6  7  1  0  0  0
  7  8  1  0  0  0
  8  9  2  0  0  0
  9 10  1  0  0  0
 10 11  2  0  0  0
 11 12  1  0  0  0
 12 13  2  0  0  0
 13 14  1  0  0  0
 14 15  2  0  0  0
 15 16  1  0  0  0
  4 18  1  0  0  0
 18 19  2  0  0  0
 19 20  1  0  0  0
 20 21  2  0  0  0
 21 22  1  0  0  0
 22 23  2  0  0  0
 21 24  1  0  0  0
 24 25  3  0  0  0
  7  2  1  0  0  0
 16  8  1  0  0  0
 23 18  1  0  0  0
 15 10  1  0  0  0
 16 17  1  0  0  0
M  END
> <minimizedAffinity>
-5.94051

> <CNNscore>
0.2124097794

> <CNNaffinity>
4.8876943588

> <CNN_VS>
1.0381940603

> <CNNaffinity_variance>
0.3514158130

$$$$
[H]c1c([H])c(N2C([H])([H])C([H])([H])N(c3nc4c([H])c([H])c([H])c([H])c4n3[H])[C@]([H])(C([H])([H])[H])C2([H])[H])c([H])c([H])c1C#N


 25 28  0  0  0  0  0  0  0  0999 V2000
  -87.9883   30.1319   -3.1481 C   0  0  0  0  0  0  0  0  0  0  0  0
  -87.9797   31.6311   -3.1033 C   0  0  0  0  0  0  0  0  0  0  0  0
  -87.8517   32.2625   -4.4882 C   0  0  0  0  0  0  0  0  0  0  0  0
  -87.9997   33.6934   -4.2935 N   0  0  0  0  0  0  0  0  0  0  0  0
  -87.3742   34.2867   -3.1303 C   0  0  0  0  0  0  0  0  0  0  0  0
  -86.2468   33.3466   -2.7012 C   0  0  0  0  0  0  0  0  0  0  0  0
  -86.9269   32.1350   -2.2517 N   0  0  0  0  0  0  0  0  0  0  0  0
  -86.5452   31.5238   -1.0359 C   0  0  0  0  0  0  0  0  0  0  0  0
  -86.8247   30.2787   -0.6144 N   0  0  0  0  0  0  0  0  0  0  0  0
  -86.2953   30.0284    0.5940 C   0  0  0  0  0  0  0  0  0  0  0  0
  -86.2913   28.9301    1.4450 C   0  0  0  0  0  0  0  0  0  0  0  0
  -85.6311   28.9713    2.6777 C   0  0  0  0  0  0  0  0  0  0  0  0
  -84.9828   30.1272    3.0319 C   0  0  0  0  0  0  0  0  0  0  0  0
  -84.9812   31.2215    2.1947 C   0  0  0  0  0  0  0  0  0  0  0  0
  -85.6396   31.1850    0.9623 C   0  0  0  0  0  0  0  0  0  0  0  0
  -85.8016   32.0750   -0.0330 N   0  0  0  0  0  0  0  0  0  0  0  0
  -85.4313   33.0473   -0.0682 H   0  0  0  0  0  0  0  0  0  0  0  0
  -88.7250   34.5301   -5.1973 C   0  0  0  0  0  0  0  0  0  0  0  0
  -90.0498   34.2720   -5.4595 C   0  0  0  0  0  0  0  0  0  0  0  0
  -90.8086   35.0433   -6.3139 C   0  0  0  0  0  0  0  0  0  0  0  0
  -90.2061   36.1149   -6.9255 C   0  0  0  0  0  0  0  0  0  0  0  0
  -88.8806   36.4100   -6.6915 C   0  0  0  0  0  0  0  0  0  0  0  0
  -88.1354   35.6072   -5.8177 C   0  0  0  0  0  0  0  0  0  0  0  0
  -90.9640   36.9520   -7.8304 C   0  0  0  0  0  0  0  0  0  0  0  0
  -91.5725   37.5973   -8.5537 N   0  0  0  0  0  0  0  0  0  0  0  0
  1  2  1  0  0  0
  2  3  1  0  0  0
  3  4  1  0  0  0
  4  5  1  0  0  0
  5  6  1  0  0  0
  6  7  1  0  0  0
  7  8  1  0  0  0
  8  9  2  0  0  0
  9 10  1  0  0  0
 10 11  2  0  0  0
 11 12  1  0  0  0
 12 13  2  0  0  0
 13 14  1  0  0  0
 14 15  2  0  0  0
 15 16  1  0  0  0
  4 18  1  0  0  0
 18 19  2  0  0  0
 19 20  1  0  0  0
 20 21  2  0  0  0
 21 22  1  0  0  0
 22 23  2  0  0  0
 21 24  1  0  0  0
 24 25  3  0  0  0
  7  2  1  0  0  0
 16  8  1  0  0  0
 23 18  1  0  0  0
 15 10  1  0  0  0
 16 17  1  0  0  0
M  END
> <minimizedAffinity>
-7.26464

> <CNNscore>
0.1705490947

> <CNNaffinity>
5.3548240662

> <CNN_VS>
0.9132604003

> <CNNaffinity_variance>
0.1657852232

$$$$
[H]c1c([H])c(N2C([H])([H])C([H])([H])N(c3nc4c([H])c([H])c([H])c([H])c4n3[H])[C@]([H])(C([H])([H])[H])C2([H])[H])c([H])c([H])c1C#N


 25 28  0  0  0  0  0  0  0  0999 V2000
  -87.7666   29.5183   -3.0782 C   0  0  0  0  0  0  0  0  0  0  0  0
  -88.1591   28.3569   -2.2142 C   0  0  0  0  0  0  0  0  0  0  0  0
  -89.6190   27.9485   -2.4013 C   0  0  0  0  0  0  0  0  0  0  0  0
  -89.8032   26.7415   -1.6160 N   0  0  0  0  0  0  0  0  0  0  0  0
  -89.1571   26.6703   -0.3223 C   0  0  0  0  0  0  0  0  0  0  0  0
  -88.9027   28.1091    0.1296 C   0  0  0  0  0  0  0  0  0  0  0  0
  -87.9156   28.6242   -0.8153 N   0  0  0  0  0  0  0  0  0  0  0  0
  -86.7918   29.3372   -0.3399 C   0  0  0  0  0  0  0  0  0  0  0  0
  -85.6725   28.8402    0.2138 N   0  0  0  0  0  0  0  0  0  0  0  0
  -84.8049   29.8098    0.5458 C   0  0  0  0  0  0  0  0  0  0  0  0
  -83.5434   29.8280    1.1276 C   0  0  0  0  0  0  0  0  0  0  0  0
  -82.8670   31.0316    1.3533 C   0  0  0  0  0  0  0  0  0  0  0  0
  -83.4796   32.2027    0.9856 C   0  0  0  0  0  0  0  0  0  0  0  0
  -84.7305   32.1948    0.4080 C   0  0  0  0  0  0  0  0  0  0  0  0
  -85.4101   30.9947    0.1808 C   0  0  0  0  0  0  0  0  0  0  0  0
  -86.6070   30.6893   -0.3511 N   0  0  0  0  0  0  0  0  0  0  0  0
  -87.3134   31.3566   -0.7247 H   0  0  0  0  0  0  0  0  0  0  0  0
  -90.5925   25.6366   -2.0621 C   0  0  0  0  0  0  0  0  0  0  0  0
  -90.2478   24.3556   -1.7004 C   0  0  0  0  0  0  0  0  0  0  0  0
  -90.9696   23.2473   -2.0896 C   0  0  0  0  0  0  0  0  0  0  0  0
  -92.0806   23.4410   -2.8728 C   0  0  0  0  0  0  0  0  0  0  0  0
  -92.4623   24.7076   -3.2587 C   0  0  0  0  0  0  0  0  0  0  0  0
  -91.7081   25.8145   -2.8473 C   0  0  0  0  0  0  0  0  0  0  0  0
  -92.8682   22.3066   -3.3051 C   0  0  0  0  0  0  0  0  0  0  0  0
  -93.4740   21.3982   -3.6480 N   0  0  0  0  0  0  0  0  0  0  0  0
  1  2  1  0  0  0
  2  3  1  0  0  0
  3  4  1  0  0  0
  4  5  1  0  0  0
  5  6  1  0  0  0
  6  7  1  0  0  0
  7  8  1  0  0  0
  8  9  2  0  0  0
  9 10  1  0  0  0
 10 11  2  0  0  0
 11 12  1  0  0  0
 12 13  2  0  0  0
 13 14  1  0  0  0
 14 15  2  0  0  0
 15 16  1  0  0  0
  4 18  1  0  0  0
 18 19  2  0  0  0
 19 20  1  0  0  0
 20 21  2  0  0  0
 21 22  1  0  0  0
 22 23  2  0  0  0
 21 24  1  0  0  0
 24 25  3  0  0  0
  7  2  1  0  0  0
 16  8  1  0  0  0
 23 18  1  0  0  0
 15 10  1  0  0  0
 16 17  1  0  0  0
M  END
> <minimizedAffinity>
-7.84434

> <CNNscore>
0.1512194872

> <CNNaffinity>
5.2644410133

> <CNN_VS>
0.7960860729

> <CNNaffinity_variance>
0.2238400728

$$$$
[H]c1c([H])c(N2C([H])([H])C([H])([H])N(c3nc4c([H])c([H])c([H])c([H])c4n3[H])[C@]([H])(C([H])([H])[H])C2([H])[H])c([H])c([H])c1C#N


 25 28  0  0  0  0  0  0  0  0999 V2000
  -87.7039   30.8550   -4.0732 C   0  0  0  0  0  0  0  0  0  0  0  0
  -88.4960   30.0530   -3.0838 C   0  0  0  0  0  0  0  0  0  0  0  0
  -89.9785   29.9711   -3.4419 C   0  0  0  0  0  0  0  0  0  0  0  0
  -90.5745   29.0584   -2.4832 N   0  0  0  0  0  0  0  0  0  0  0  0
  -90.1314   29.1378   -1.1071 C   0  0  0  0  0  0  0  0  0  0  0  0
  -89.5540   30.5393   -0.9040 C   0  0  0  0  0  0  0  0  0  0  0  0
  -88.3587   30.5717   -1.7423 N   0  0  0  0  0  0  0  0  0  0  0  0
  -87.1494   31.0875   -1.2236 C   0  0  0  0  0  0  0  0  0  0  0  0
  -86.3218   30.5141   -0.3333 N   0  0  0  0  0  0  0  0  0  0  0  0
  -85.2564   31.2878   -0.0695 C   0  0  0  0  0  0  0  0  0  0  0  0
  -84.1426   31.1612    0.7513 C   0  0  0  0  0  0  0  0  0  0  0  0
  -83.1718   32.1665    0.8151 C   0  0  0  0  0  0  0  0  0  0  0  0
  -83.3434   33.2885    0.0447 C   0  0  0  0  0  0  0  0  0  0  0  0
  -84.4447   33.4231   -0.7723 C   0  0  0  0  0  0  0  0  0  0  0  0
  -85.4172   32.4214   -0.8391 C   0  0  0  0  0  0  0  0  0  0  0  0
  -86.5640   32.2823   -1.5277 N   0  0  0  0  0  0  0  0  0  0  0  0
  -86.9759   32.9624   -2.1998 H   0  0  0  0  0  0  0  0  0  0  0  0
  -91.5735   28.1003   -2.8391 C   0  0  0  0  0  0  0  0  0  0  0  0
  -91.2021   26.8499   -3.2740 C   0  0  0  0  0  0  0  0  0  0  0  0
  -92.1140   25.8773   -3.6253 C   0  0  0  0  0  0  0  0  0  0  0  0
  -93.4502   26.1797   -3.5333 C   0  0  0  0  0  0  0  0  0  0  0  0
  -93.8669   27.4205   -3.1023 C   0  0  0  0  0  0  0  0  0  0  0  0
  -92.9160   28.3883   -2.7524 C   0  0  0  0  0  0  0  0  0  0  0  0
  -94.4428   25.1897   -3.8918 C   0  0  0  0  0  0  0  0  0  0  0  0
  -95.2216   24.3950   -4.1596 N   0  0  0  0  0  0  0  0  0  0  0  0
  1  2  1  0  0  0
  2  3  1  0  0  0
  3  4  1  0  0  0
  4  5  1  0  0  0
  5  6  1  0  0  0
  6  7  1  0  0  0
  7  8  1  0  0  0
  8  9  2  0  0  0
  9 10  1  0  0  0
 10 11  2  0  0  0
 11 12  1  0  0  0
 12 13  2  0  0  0
 13 14  1  0  0  0
 14 15  2  0  0  0
 15 16  1  0  0  0
  4 18  1  0  0  0
 18 19  2  0  0  0
 19 20  1  0  0  0
 20 21  2  0  0  0
 21 22  1  0  0  0
 22 23  2  0  0  0
 21 24  1  0  0  0
 24 25  3  0  0  0
  7  2  1  0  0  0
 16  8  1  0  0  0
 23 18  1  0  0  0
 15 10  1  0  0  0
 16 17  1  0  0  0
M  END
> <minimizedAffinity>
-6.14337

> <CNNscore>
0.1417084187

> <CNNaffinity>
5.2710289955

> <CNN_VS>
0.7469491959

> <CNNaffinity_variance>
0.0932745486

$$$$
[H]c1c([H])c(N2C([H])([H])C([H])([H])N(c3nc4c([H])c([H])c([H])c([H])c4n3[H])[C@]([H])(C([H])([H])[H])C2([H])[H])c([H])c([H])c1C#N


 25 28  0  0  0  0  0  0  0  0999 V2000
  -85.9987   33.4585   -0.9426 C   0  0  0  0  0  0  0  0  0  0  0  0
  -86.9868   32.5540   -1.6171 C   0  0  0  0  0  0  0  0  0  0  0  0
  -88.2987   33.2598   -1.9546 C   0  0  0  0  0  0  0  0  0  0  0  0
  -89.0836   32.3069   -2.7184 N   0  0  0  0  0  0  0  0  0  0  0  0
  -89.0550   30.9199   -2.3042 C   0  0  0  0  0  0  0  0  0  0  0  0
  -88.6482   30.9023   -0.8301 C   0  0  0  0  0  0  0  0  0  0  0  0
  -87.2686   31.3813   -0.8216 N   0  0  0  0  0  0  0  0  0  0  0  0
  -86.2911   30.6973   -0.0639 C   0  0  0  0  0  0  0  0  0  0  0  0
  -84.9836   30.9867    0.0502 N   0  0  0  0  0  0  0  0  0  0  0  0
  -84.3492   30.1254    0.8618 C   0  0  0  0  0  0  0  0  0  0  0  0
  -83.0377   29.9885    1.2997 C   0  0  0  0  0  0  0  0  0  0  0  0
  -82.6690   28.9589    2.1721 C   0  0  0  0  0  0  0  0  0  0  0  0
  -83.6363   28.0803    2.5897 C   0  0  0  0  0  0  0  0  0  0  0  0
  -84.9394   28.2079    2.1609 C   0  0  0  0  0  0  0  0  0  0  0  0
  -85.3124   29.2349    1.2892 C   0  0  0  0  0  0  0  0  0  0  0  0
  -86.4763   29.5959    0.7203 N   0  0  0  0  0  0  0  0  0  0  0  0
  -87.3998   29.1294    0.8363 H   0  0  0  0  0  0  0  0  0  0  0  0
  -89.8783   32.6810   -3.8460 C   0  0  0  0  0  0  0  0  0  0  0  0
  -91.0834   32.0593   -4.0736 C   0  0  0  0  0  0  0  0  0  0  0  0
  -91.9014   32.3773   -5.1368 C   0  0  0  0  0  0  0  0  0  0  0  0
  -91.4863   33.3599   -6.0013 C   0  0  0  0  0  0  0  0  0  0  0  0
  -90.2857   34.0089   -5.8110 C   0  0  0  0  0  0  0  0  0  0  0  0
  -89.4759   33.6633   -4.7210 C   0  0  0  0  0  0  0  0  0  0  0  0
  -92.3127   33.7264   -7.1312 C   0  0  0  0  0  0  0  0  0  0  0  0
  -92.9504   34.0264   -8.0330 N   0  0  0  0  0  0  0  0  0  0  0  0
  1  2  1  0  0  0
  2  3  1  0  0  0
  3  4  1  0  0  0
  4  5  1  0  0  0
  5  6  1  0  0  0
  6  7  1  0  0  0
  7  8  1  0  0  0
  8  9  2  0  0  0
  9 10  1  0  0  0
 10 11  2  0  0  0
 11 12  1  0  0  0
 12 13  2  0  0  0
 13 14  1  0  0  0
 14 15  2  0  0  0
 15 16  1  0  0  0
  4 18  1  0  0  0
 18 19  2  0  0  0
 19 20  1  0  0  0
 20 21  2  0  0  0
 21 22  1  0  0  0
 22 23  2  0  0  0
 21 24  1  0  0  0
 24 25  3  0  0  0
  7  2  1  0  0  0
 16  8  1  0  0  0
 23 18  1  0  0  0
 15 10  1  0  0  0
 16 17  1  0  0  0
M  END
> <minimizedAffinity>
-8.08708

> <CNNscore>
0.1346183419

> <CNNaffinity>
5.5785436630

> <CNN_VS>
0.7509742975

> <CNNaffinity_variance>
0.1816768348

$$$$
[H]c1nc(N([H])c2c([H])c([H])c(Oc3nc([H])c([H])c([H])c3N3C([H])([H])C([H])([H])OC([H])([H])C3([H])[H])c([H])c2[H])c([H])c([H])c1[H]


 27 30  0  0  0  0  0  0  0  0999 V2000
  -87.7499   32.6422   -1.2090 C   0  0  0  0  0  0  0  0  0  0  0  0
  -86.5734   33.0956   -1.7077 C   0  0  0  0  0  0  0  0  0  0  0  0
  -86.5755   34.0876   -2.6782 C   0  0  0  0  0  0  0  0  0  0  0  0
  -87.7142   34.6572   -3.1836 C   0  0  0  0  0  0  0  0  0  0  0  0
  -88.9176   34.1731   -2.6526 C   0  0  0  0  0  0  0  0  0  0  0  0
  -88.9192   33.1947   -1.6947 C   0  0  0  0  0  0  0  0  0  0  0  0
  -87.7287   35.6448   -4.1864 N   0  0  0  0  0  0  0  0  0  0  0  0
  -87.9904   35.2749   -5.1556 H   0  0  0  0  0  0  0  0  0  0  0  0
  -87.4465   37.0033   -4.0526 C   0  0  0  0  0  0  0  0  0  0  0  0
  -86.6682   37.7195   -4.9054 C   0  0  0  0  0  0  0  0  0  0  0  0
  -86.4088   39.0633   -4.6875 C   0  0  0  0  0  0  0  0  0  0  0  0
  -86.9590   39.6704   -3.5808 C   0  0  0  0  0  0  0  0  0  0  0  0
  -87.7494   38.9565   -2.7106 C   0  0  0  0  0  0  0  0  0  0  0  0
  -87.9567   37.6728   -2.9790 N   0  0  0  0  0  0  0  0  0  0  0  0
  -87.8066   31.6510   -0.2366 O   0  0  0  0  0  0  0  0  0  0  0  0
  -86.5261   29.5943   -0.0700 C   0  0  0  0  0  0  0  0  0  0  0  0
  -86.4514   28.2828   -0.5141 C   0  0  0  0  0  0  0  0  0  0  0  0
  -87.3667   27.7460   -1.4026 C   0  0  0  0  0  0  0  0  0  0  0  0
  -88.3990   28.5265   -1.8767 C   0  0  0  0  0  0  0  0  0  0  0  0
  -88.4811   29.7997   -1.4524 N   0  0  0  0  0  0  0  0  0  0  0  0
  -87.5776   30.3308   -0.5742 C   0  0  0  0  0  0  0  0  0  0  0  0
  -84.2631   28.9631    2.4889 C   0  0  0  0  0  0  0  0  0  0  0  0
  -85.5186   29.7562    2.2370 C   0  0  0  0  0  0  0  0  0  0  0  0
  -85.5523   30.1162    0.8098 N   0  0  0  0  0  0  0  0  0  0  0  0
  -84.4700   31.0169    0.4261 C   0  0  0  0  0  0  0  0  0  0  0  0
  -83.2897   30.7478    1.3541 C   0  0  0  0  0  0  0  0  0  0  0  0
  -83.2076   29.3979    1.6877 O   0  0  0  0  0  0  0  0  0  0  0  0
 22 23  1  0  0  0
 23 24  1  0  0  0
 24 25  1  0  0  0
 25 26  1  0  0  0
 26 27  1  0  0  0
 24 16  1  0  0  0
 16 17  2  0  0  0
 17 18  1  0  0  0
 18 19  2  0  0  0
 19 20  1  0  0  0
 20 21  2  0  0  0
 21 15  1  0  0  0
 15  1  1  0  0  0
  1  2  2  0  0  0
  2  3  1  0  0  0
  3  4  2  0  0  0
  4  7  1  0  0  0
  7  9  1  0  0  0
  9 10  2  0  0  0
 10 11  1  0  0  0
 11 12  2  0  0  0
 12 13  1  0  0  0
 13 14  2  0  0  0
  4  5  1  0  0  0
  5  6  2  0  0  0
 27 22  1  0  0  0
 21 16  1  0  0  0
  6  1  1  0  0  0
 14  9  1  0  0  0
  7  8  1  0  0  0
M  END
> <minimizedAffinity>
-7.33728

> <CNNscore>
0.2055344433

> <CNNaffinity>
5.9023590088

> <CNN_VS>
1.2131381035

> <CNNaffinity_variance>
0.2390527427

$$$$
[H]c1nc(N([H])c2c([H])c([H])c(Oc3nc([H])c([H])c([H])c3N3C([H])([H])C([H])([H])OC([H])([H])C3([H])[H])c([H])c2[H])c([H])c([H])c1[H]


 27 30  0  0  0  0  0  0  0  0999 V2000
  -87.4156   29.8086   -0.2600 C   0  0  0  0  0  0  0  0  0  0  0  0
  -86.6918   28.8556   -0.8972 C   0  0  0  0  0  0  0  0  0  0  0  0
  -87.3311   27.9542   -1.7368 C   0  0  0  0  0  0  0  0  0  0  0  0
  -88.6804   27.9582   -1.9736 C   0  0  0  0  0  0  0  0  0  0  0  0
  -89.4073   28.9525   -1.3046 C   0  0  0  0  0  0  0  0  0  0  0  0
  -88.7796   29.8436   -0.4759 C   0  0  0  0  0  0  0  0  0  0  0  0
  -89.3425   27.0327   -2.8020 N   0  0  0  0  0  0  0  0  0  0  0  0
  -89.2662   27.2531   -3.8462 H   0  0  0  0  0  0  0  0  0  0  0  0
  -90.0614   25.9022   -2.4170 C   0  0  0  0  0  0  0  0  0  0  0  0
  -91.3353   25.6274   -2.8013 C   0  0  0  0  0  0  0  0  0  0  0  0
  -91.9952   24.4952   -2.3506 C   0  0  0  0  0  0  0  0  0  0  0  0
  -91.3325   23.6411   -1.4975 C   0  0  0  0  0  0  0  0  0  0  0  0
  -90.0426   23.9076   -1.1021 C   0  0  0  0  0  0  0  0  0  0  0  0
  -89.4701   25.0099   -1.5711 N   0  0  0  0  0  0  0  0  0  0  0  0
  -86.8275   30.7362    0.5915 O   0  0  0  0  0  0  0  0  0  0  0  0
  -84.5342   31.5351    0.5864 C   0  0  0  0  0  0  0  0  0  0  0  0
  -83.6680   32.4485    0.0047 C   0  0  0  0  0  0  0  0  0  0  0  0
  -84.0756   33.3419   -0.9705 C   0  0  0  0  0  0  0  0  0  0  0  0
  -85.3872   33.3413   -1.3941 C   0  0  0  0  0  0  0  0  0  0  0  0
  -86.2356   32.4597   -0.8368 N   0  0  0  0  0  0  0  0  0  0  0  0
  -85.8338   31.5761    0.1262 C   0  0  0  0  0  0  0  0  0  0  0  0
  -85.3489   29.0292    2.8501 C   0  0  0  0  0  0  0  0  0  0  0  0
  -84.8572   30.4529    2.8421 C   0  0  0  0  0  0  0  0  0  0  0  0
  -84.0885   30.6632    1.6041 N   0  0  0  0  0  0  0  0  0  0  0  0
  -82.8725   29.8581    1.5475 C   0  0  0  0  0  0  0  0  0  0  0  0
  -83.1148   28.5914    2.3622 C   0  0  0  0  0  0  0  0  0  0  0  0
  -84.4356   28.1635    2.2487 O   0  0  0  0  0  0  0  0  0  0  0  0
 22 23  1  0  0  0
 23 24  1  0  0  0
 24 25  1  0  0  0
 25 26  1  0  0  0
 26 27  1  0  0  0
 24 16  1  0  0  0
 16 17  2  0  0  0
 17 18  1  0  0  0
 18 19  2  0  0  0
 19 20  1  0  0  0
 20 21  2  0  0  0
 21 15  1  0  0  0
 15  1  1  0  0  0
  1  2  2  0  0  0
  2  3  1  0  0  0
  3  4  2  0  0  0
  4  7  1  0  0  0
  7  9  1  0  0  0
  9 10  2  0  0  0
 10 11  1  0  0  0
 11 12  2  0  0  0
 12 13  1  0  0  0
 13 14  2  0  0  0
  4  5  1  0  0  0
  5  6  2  0  0  0
 27 22  1  0  0  0
 21 16  1  0  0  0
  6  1  1  0  0  0
 14  9  1  0  0  0
  7  8  1  0  0  0
M  END
> <minimizedAffinity>
-8.08725

> <CNNscore>
0.1864479482

> <CNNaffinity>
5.8961882591

> <CNN_VS>
1.0993322134

> <CNNaffinity_variance>
0.3429397941

$$$$
[H]c1nc(N([H])c2c([H])c([H])c(Oc3nc([H])c([H])c([H])c3N3C([H])([H])C([H])([H])OC([H])([H])C3([H])[H])c([H])c2[H])c([H])c([H])c1[H]


 27 30  0  0  0  0  0  0  0  0999 V2000
  -89.8810   30.5278   -1.3968 C   0  0  0  0  0  0  0  0  0  0  0  0
  -88.7035   29.9456   -1.7325 C   0  0  0  0  0  0  0  0  0  0  0  0
  -87.5139   30.6269   -1.5158 C   0  0  0  0  0  0  0  0  0  0  0  0
  -87.4426   31.8823   -0.9721 C   0  0  0  0  0  0  0  0  0  0  0  0
  -88.6722   32.4633   -0.6327 C   0  0  0  0  0  0  0  0  0  0  0  0
  -89.8476   31.7938   -0.8448 C   0  0  0  0  0  0  0  0  0  0  0  0
  -86.2440   32.5927   -0.7725 N   0  0  0  0  0  0  0  0  0  0  0  0
  -86.2509   33.5796   -1.1855 H   0  0  0  0  0  0  0  0  0  0  0  0
  -85.0920   32.1591   -0.1183 C   0  0  0  0  0  0  0  0  0  0  0  0
  -85.0812   31.3862    0.9991 C   0  0  0  0  0  0  0  0  0  0  0  0
  -83.8925   31.0206    1.6105 C   0  0  0  0  0  0  0  0  0  0  0  0
  -82.7072   31.4564    1.0617 C   0  0  0  0  0  0  0  0  0  0  0  0
  -82.7047   32.2383   -0.0698 C   0  0  0  0  0  0  0  0  0  0  0  0
  -83.8791   32.5519   -0.6039 N   0  0  0  0  0  0  0  0  0  0  0  0
  -91.1011   29.8917   -1.5916 O   0  0  0  0  0  0  0  0  0  0  0  0
  -91.9459   28.5067   -3.3986 C   0  0  0  0  0  0  0  0  0  0  0  0
  -92.4440   28.5353   -4.6925 C   0  0  0  0  0  0  0  0  0  0  0  0
  -92.5926   29.7122   -5.4055 C   0  0  0  0  0  0  0  0  0  0  0  0
  -92.2384   30.9121   -4.8272 C   0  0  0  0  0  0  0  0  0  0  0  0
  -91.7546   30.8958   -3.5729 N   0  0  0  0  0  0  0  0  0  0  0  0
  -91.6079   29.7338   -2.8674 C   0  0  0  0  0  0  0  0  0  0  0  0
  -89.8512   26.4847   -1.5034 C   0  0  0  0  0  0  0  0  0  0  0  0
  -90.5441   26.4850   -2.8408 C   0  0  0  0  0  0  0  0  0  0  0  0
  -91.7759   27.2817   -2.7165 N   0  0  0  0  0  0  0  0  0  0  0  0
  -92.7470   26.6866   -1.8040 C   0  0  0  0  0  0  0  0  0  0  0  0
  -91.9748   25.8838   -0.7617 C   0  0  0  0  0  0  0  0  0  0  0  0
  -90.7636   26.4966   -0.4486 O   0  0  0  0  0  0  0  0  0  0  0  0
 22 23  1  0  0  0
 23 24  1  0  0  0
 24 25  1  0  0  0
 25 26  1  0  0  0
 26 27  1  0  0  0
 24 16  1  0  0  0
 16 17  2  0  0  0
 17 18  1  0  0  0
 18 19  2  0  0  0
 19 20  1  0  0  0
 20 21  2  0  0  0
 21 15  1  0  0  0
 15  1  1  0  0  0
  1  2  2  0  0  0
  2  3  1  0  0  0
  3  4  2  0  0  0
  4  7  1  0  0  0
  7  9  1  0  0  0
  9 10  2  0  0  0
 10 11  1  0  0  0
 11 12  2  0  0  0
 12 13  1  0  0  0
 13 14  2  0  0  0
  4  5  1  0  0  0
  5  6  2  0  0  0
 27 22  1  0  0  0
 21 16  1  0  0  0
  6  1  1  0  0  0
 14  9  1  0  0  0
  7  8  1  0  0  0
M  END
> <minimizedAffinity>
-6.98556

> <CNNscore>
0.1854313463

> <CNNaffinity>
5.7373685837

> <CNN_VS>
1.0638879538

> <CNNaffinity_variance>
0.0780509859

$$$$
[H]c1nc(N([H])c2c([H])c([H])c(Oc3nc([H])c([H])c([H])c3N3C([H])([H])C([H])([H])OC([H])([H])C3([H])[H])c([H])c2[H])c([H])c([H])c1[H]


 27 30  0  0  0  0  0  0  0  0999 V2000
  -88.0024   29.9372   -0.7248 C   0  0  0  0  0  0  0  0  0  0  0  0
  -87.4282   29.3652   -1.8117 C   0  0  0  0  0  0  0  0  0  0  0  0
  -87.6179   28.0124   -2.0569 C   0  0  0  0  0  0  0  0  0  0  0  0
  -88.3647   27.1899   -1.2555 C   0  0  0  0  0  0  0  0  0  0  0  0
  -88.9486   27.8035   -0.1388 C   0  0  0  0  0  0  0  0  0  0  0  0
  -88.7639   29.1379    0.1059 C   0  0  0  0  0  0  0  0  0  0  0  0
  -88.5418   25.8117   -1.4802 N   0  0  0  0  0  0  0  0  0  0  0  0
  -87.6552   25.2310   -1.3340 H   0  0  0  0  0  0  0  0  0  0  0  0
  -89.7085   25.1505   -1.8606 C   0  0  0  0  0  0  0  0  0  0  0  0
  -89.9643   23.8367   -1.6278 C   0  0  0  0  0  0  0  0  0  0  0  0
  -91.1376   23.2428   -2.0651 C   0  0  0  0  0  0  0  0  0  0  0  0
  -92.0528   24.0135   -2.7466 C   0  0  0  0  0  0  0  0  0  0  0  0
  -91.8061   25.3449   -2.9876 C   0  0  0  0  0  0  0  0  0  0  0  0
  -90.6620   25.8496   -2.5414 N   0  0  0  0  0  0  0  0  0  0  0  0
  -87.8459   31.2864   -0.4311 O   0  0  0  0  0  0  0  0  0  0  0  0
  -86.2804   32.8225   -1.4736 C   0  0  0  0  0  0  0  0  0  0  0  0
  -84.9849   33.3134   -1.4130 C   0  0  0  0  0  0  0  0  0  0  0  0
  -84.0726   32.8876   -0.4634 C   0  0  0  0  0  0  0  0  0  0  0  0
  -84.4444   31.9404    0.4664 C   0  0  0  0  0  0  0  0  0  0  0  0
  -85.6983   31.4578    0.4169 N   0  0  0  0  0  0  0  0  0  0  0  0
  -86.6005   31.8784   -0.5205 C   0  0  0  0  0  0  0  0  0  0  0  0
  -88.8226   31.9794   -3.6859 C   0  0  0  0  0  0  0  0  0  0  0  0
  -87.4006   32.4758   -3.7071 C   0  0  0  0  0  0  0  0  0  0  0  0
  -87.1714   33.2562   -2.4799 N   0  0  0  0  0  0  0  0  0  0  0  0
  -87.9795   34.4701   -2.4201 C   0  0  0  0  0  0  0  0  0  0  0  0
  -89.2593   34.2164   -3.2103 C   0  0  0  0  0  0  0  0  0  0  0  0
  -89.6807   32.8952   -3.0777 O   0  0  0  0  0  0  0  0  0  0  0  0
 22 23  1  0  0  0
 23 24  1  0  0  0
 24 25  1  0  0  0
 25 26  1  0  0  0
 26 27  1  0  0  0
 24 16  1  0  0  0
 16 17  2  0  0  0
 17 18  1  0  0  0
 18 19  2  0  0  0
 19 20  1  0  0  0
 20 21  2  0  0  0
 21 15  1  0  0  0
 15  1  1  0  0  0
  1  2  2  0  0  0
  2  3  1  0  0  0
  3  4  2  0  0  0
  4  7  1  0  0  0
  7  9  1  0  0  0
  9 10  2  0  0  0
 10 11  1  0  0  0
 11 12  2  0  0  0
 12 13  1  0  0  0
 13 14  2  0  0  0
  4  5  1  0  0  0
  5  6  2  0  0  0
 27 22  1  0  0  0
 21 16  1  0  0  0
  6  1  1  0  0  0
 14  9  1  0  0  0
  7  8  1  0  0  0
M  END
> <minimizedAffinity>
-7.32055

> <CNNscore>
0.1398666352

> <CNNaffinity>
5.4453210831

> <CNN_VS>
0.7616187334

> <CNNaffinity_variance>
0.4346098006

$$$$
[H]c1nc(N([H])c2c([H])c([H])c(Oc3nc([H])c([H])c([H])c3N3C([H])([H])C([H])([H])OC([H])([H])C3([H])[H])c([H])c2[H])c([H])c([H])c1[H]


 27 30  0  0  0  0  0  0  0  0999 V2000
  -87.8361   29.6903   -0.4573 C   0  0  0  0  0  0  0  0  0  0  0  0
  -86.9571   28.9851   -1.2112 C   0  0  0  0  0  0  0  0  0  0  0  0
  -87.3192   27.7388   -1.7030 C   0  0  0  0  0  0  0  0  0  0  0  0
  -88.5361   27.1530   -1.4736 C   0  0  0  0  0  0  0  0  0  0  0  0
  -89.4279   27.9008   -0.6925 C   0  0  0  0  0  0  0  0  0  0  0  0
  -89.0741   29.1308   -0.2061 C   0  0  0  0  0  0  0  0  0  0  0  0
  -88.9039   25.8788   -1.9451 N   0  0  0  0  0  0  0  0  0  0  0  0
  -88.4968   25.6373   -2.9046 H   0  0  0  0  0  0  0  0  0  0  0  0
  -89.7143   24.9354   -1.3156 C   0  0  0  0  0  0  0  0  0  0  0  0
  -89.4824   24.4164   -0.0815 C   0  0  0  0  0  0  0  0  0  0  0  0
  -90.3197   23.4571    0.4654 C   0  0  0  0  0  0  0  0  0  0  0  0
  -91.4047   23.0327   -0.2687 C   0  0  0  0  0  0  0  0  0  0  0  0
  -91.6509   23.5511   -1.5186 C   0  0  0  0  0  0  0  0  0  0  0  0
  -90.8083   24.4664   -1.9823 N   0  0  0  0  0  0  0  0  0  0  0  0
  -87.5265   30.9422    0.0604 O   0  0  0  0  0  0  0  0  0  0  0  0
  -86.3009   32.8054   -0.9006 C   0  0  0  0  0  0  0  0  0  0  0  0
  -86.3918   33.8665   -1.7886 C   0  0  0  0  0  0  0  0  0  0  0  0
  -87.5456   34.1419   -2.5016 C   0  0  0  0  0  0  0  0  0  0  0  0
  -88.6579   33.3444   -2.3381 C   0  0  0  0  0  0  0  0  0  0  0  0
  -88.5805   32.3125   -1.4797 N   0  0  0  0  0  0  0  0  0  0  0  0
  -87.4409   32.0393   -0.7753 C   0  0  0  0  0  0  0  0  0  0  0  0
  -84.3262   30.5274    0.8255 C   0  0  0  0  0  0  0  0  0  0  0  0
  -85.1111   31.7880    1.0775 C   0  0  0  0  0  0  0  0  0  0  0  0
  -85.1169   32.5780   -0.1649 N   0  0  0  0  0  0  0  0  0  0  0  0
  -83.7883   33.0468   -0.5455 C   0  0  0  0  0  0  0  0  0  0  0  0
  -82.7705   32.0436   -0.0121 C   0  0  0  0  0  0  0  0  0  0  0  0
  -83.2702   30.7442   -0.0594 O   0  0  0  0  0  0  0  0  0  0  0  0
 22 23  1  0  0  0
 23 24  1  0  0  0
 24 25  1  0  0  0
 25 26  1  0  0  0
 26 27  1  0  0  0
 24 16  1  0  0  0
 16 17  2  0  0  0
 17 18  1  0  0  0
 18 19  2  0  0  0
 19 20  1  0  0  0
 20 21  2  0  0  0
 21 15  1  0  0  0
 15  1  1  0  0  0
  1  2  2  0  0  0
  2  3  1  0  0  0
  3  4  2  0  0  0
  4  7  1  0  0  0
  7  9  1  0  0  0
  9 10  2  0  0  0
 10 11  1  0  0  0
 11 12  2  0  0  0
 12 13  1  0  0  0
 13 14  2  0  0  0
  4  5  1  0  0  0
  5  6  2  0  0  0
 27 22  1  0  0  0
 21 16  1  0  0  0
  6  1  1  0  0  0
 14  9  1  0  0  0
  7  8  1  0  0  0
M  END
> <minimizedAffinity>
-7.35961

> <CNNscore>
0.1300439984

> <CNNaffinity>
5.4200029373

> <CNN_VS>
0.7048388720

> <CNNaffinity_variance>
0.7193856239

$$$$
[H]c1nc(N([H])c2c([H])c([H])c(Oc3nc([H])c([H])c([H])c3N3C([H])([H])C([H])([H])OC([H])([H])C3([H])[H])c([H])c2[H])c([H])c([H])c1[H]


 27 30  0  0  0  0  0  0  0  0999 V2000
  -88.7607   28.2881   -2.1837 C   0  0  0  0  0  0  0  0  0  0  0  0
  -87.4103   28.1729   -2.1490 C   0  0  0  0  0  0  0  0  0  0  0  0
  -86.6872   28.8560   -1.1811 C   0  0  0  0  0  0  0  0  0  0  0  0
  -87.2569   29.6623   -0.2315 C   0  0  0  0  0  0  0  0  0  0  0  0
  -88.6537   29.7653   -0.2869 C   0  0  0  0  0  0  0  0  0  0  0  0
  -89.3702   29.0925   -1.2402 C   0  0  0  0  0  0  0  0  0  0  0  0
  -86.5313   30.3802    0.7377 N   0  0  0  0  0  0  0  0  0  0  0  0
  -87.1132   30.6727    1.5865 H   0  0  0  0  0  0  0  0  0  0  0  0
  -85.1842   30.7371    0.7063 C   0  0  0  0  0  0  0  0  0  0  0  0
  -84.1931   30.0755    1.3589 C   0  0  0  0  0  0  0  0  0  0  0  0
  -82.8786   30.5109    1.3035 C   0  0  0  0  0  0  0  0  0  0  0  0
  -82.5874   31.6376    0.5672 C   0  0  0  0  0  0  0  0  0  0  0  0
  -83.5816   32.3155   -0.0987 C   0  0  0  0  0  0  0  0  0  0  0  0
  -84.8191   31.8441   -0.0026 N   0  0  0  0  0  0  0  0  0  0  0  0
  -89.5341   27.6271   -3.1303 O   0  0  0  0  0  0  0  0  0  0  0  0
  -91.6134   26.3727   -3.1086 C   0  0  0  0  0  0  0  0  0  0  0  0
  -92.2102   25.2020   -2.6657 C   0  0  0  0  0  0  0  0  0  0  0  0
  -91.5241   24.2496   -1.9324 C   0  0  0  0  0  0  0  0  0  0  0  0
  -90.1973   24.4522   -1.6191 C   0  0  0  0  0  0  0  0  0  0  0  0
  -89.6086   25.5839   -2.0438 N   0  0  0  0  0  0  0  0  0  0  0  0
  -90.2854   26.5251   -2.7688 C   0  0  0  0  0  0  0  0  0  0  0  0
  -92.0912   29.7329   -3.8496 C   0  0  0  0  0  0  0  0  0  0  0  0
  -92.8194   28.5865   -3.1981 C   0  0  0  0  0  0  0  0  0  0  0  0
  -92.3567   27.3371   -3.8243 N   0  0  0  0  0  0  0  0  0  0  0  0
  -92.7172   27.2420   -5.2353 C   0  0  0  0  0  0  0  0  0  0  0  0
  -92.7980   28.6602   -5.7914 C   0  0  0  0  0  0  0  0  0  0  0  0
  -91.8465   29.4887   -5.2007 O   0  0  0  0  0  0  0  0  0  0  0  0
 22 23  1  0  0  0
 23 24  1  0  0  0
 24 25  1  0  0  0
 25 26  1  0  0  0
 26 27  1  0  0  0
 24 16  1  0  0  0
 16 17  2  0  0  0
 17 18  1  0  0  0
 18 19  2  0  0  0
 19 20  1  0  0  0
 20 21  2  0  0  0
 21 15  1  0  0  0
 15  1  1  0  0  0
  1  2  2  0  0  0
  2  3  1  0  0  0
  3  4  2  0  0  0
  4  7  1  0  0  0
  7  9  1  0  0  0
  9 10  2  0  0  0
 10 11  1  0  0  0
 11 12  2  0  0  0
 12 13  1  0  0  0
 13 14  2  0  0  0
  4  5  1  0  0  0
  5  6  2  0  0  0
 27 22  1  0  0  0
 21 16  1  0  0  0
  6  1  1  0  0  0
 14  9  1  0  0  0
  7  8  1  0  0  0
M  END
> <minimizedAffinity>
-7.81954

> <CNNscore>
0.1289335787

> <CNNaffinity>
5.1980977058

> <CNN_VS>
0.6702093482

> <CNNaffinity_variance>
0.4546393454

$$$$
[H]c1nc(N([H])c2c([H])c([H])c(Oc3nc([H])c([H])c([H])c3N3C([H])([H])C([H])([H])OC([H])([H])C3([H])[H])c([H])c2[H])c([H])c([H])c1[H]


 27 30  0  0  0  0  0  0  0  0999 V2000
  -88.1262   32.0384   -1.6585 C   0  0  0  0  0  0  0  0  0  0  0  0
  -88.7900   33.2194   -1.6066 C   0  0  0  0  0  0  0  0  0  0  0  0
  -88.9203   33.9852   -2.7567 C   0  0  0  0  0  0  0  0  0  0  0  0
  -88.4106   33.6230   -3.9755 C   0  0  0  0  0  0  0  0  0  0  0  0
  -87.7293   32.3984   -4.0046 C   0  0  0  0  0  0  0  0  0  0  0  0
  -87.5992   31.6402   -2.8719 C   0  0  0  0  0  0  0  0  0  0  0  0
  -88.5140   34.4041   -5.1419 N   0  0  0  0  0  0  0  0  0  0  0  0
  -89.2598   34.0619   -5.8284 H   0  0  0  0  0  0  0  0  0  0  0  0
  -87.7722   35.5340   -5.4826 C   0  0  0  0  0  0  0  0  0  0  0  0
  -86.9763   36.2247   -4.6250 C   0  0  0  0  0  0  0  0  0  0  0  0
  -86.2925   37.3592   -5.0322 C   0  0  0  0  0  0  0  0  0  0  0  0
  -86.4321   37.7813   -6.3355 C   0  0  0  0  0  0  0  0  0  0  0  0
  -87.2338   37.0902   -7.2136 C   0  0  0  0  0  0  0  0  0  0  0  0
  -87.8605   36.0123   -6.7573 N   0  0  0  0  0  0  0  0  0  0  0  0
  -87.9658   31.2318   -0.5383 O   0  0  0  0  0  0  0  0  0  0  0  0
  -86.2647   29.5856    0.0036 C   0  0  0  0  0  0  0  0  0  0  0  0
  -84.9630   29.4274    0.4547 C   0  0  0  0  0  0  0  0  0  0  0  0
  -84.1531   30.5020    0.7784 C   0  0  0  0  0  0  0  0  0  0  0  0
  -84.6384   31.7862    0.6554 C   0  0  0  0  0  0  0  0  0  0  0  0
  -85.8993   31.9510    0.2186 N   0  0  0  0  0  0  0  0  0  0  0  0
  -86.7000   30.8900   -0.1020 C   0  0  0  0  0  0  0  0  0  0  0  0
  -89.2392   27.8955    0.6071 C   0  0  0  0  0  0  0  0  0  0  0  0
  -87.7550   27.7029    0.7772 C   0  0  0  0  0  0  0  0  0  0  0  0
  -87.0719   28.4626   -0.2830 N   0  0  0  0  0  0  0  0  0  0  0  0
  -87.3542   27.9503   -1.6201 C   0  0  0  0  0  0  0  0  0  0  0  0
  -88.7400   27.3133   -1.5912 C   0  0  0  0  0  0  0  0  0  0  0  0
  -89.5955   28.0050   -0.7368 O   0  0  0  0  0  0  0  0  0  0  0  0
 22 23  1  0  0  0
 23 24  1  0  0  0
 24 25  1  0  0  0
 25 26  1  0  0  0
 26 27  1  0  0  0
 24 16  1  0  0  0
 16 17  2  0  0  0
 17 18  1  0  0  0
 18 19  2  0  0  0
 19 20  1  0  0  0
 20 21  2  0  0  0
 21 15  1  0  0  0
 15  1  1  0  0  0
  1  2  2  0  0  0
  2  3  1  0  0  0
  3  4  2  0  0  0
  4  7  1  0  0  0
  7  9  1  0  0  0
  9 10  2  0  0  0
 10 11  1  0  0  0
 11 12  2  0  0  0
 12 13  1  0  0  0
 13 14  2  0  0  0
  4  5  1  0  0  0
  5  6  2  0  0  0
 27 22  1  0  0  0
 21 16  1  0  0  0
  6  1  1  0  0  0
 14  9  1  0  0  0
  7  8  1  0  0  0
M  END
> <minimizedAffinity>
-7.40153

> <CNNscore>
0.1260413378

> <CNNaffinity>
5.6057748795

> <CNN_VS>
0.7065593600

> <CNNaffinity_variance>
0.1894541383

$$$$
[H]c1nc(N([H])c2c([H])c([H])c(Oc3nc([H])c([H])c([H])c3N3C([H])([H])C([H])([H])OC([H])([H])C3([H])[H])c([H])c2[H])c([H])c([H])c1[H]


 27 30  0  0  0  0  0  0  0  0999 V2000
  -87.5541   30.9110   -0.5280 C   0  0  0  0  0  0  0  0  0  0  0  0
  -88.6173   31.7460   -0.4247 C   0  0  0  0  0  0  0  0  0  0  0  0
  -89.5769   31.7635   -1.4271 C   0  0  0  0  0  0  0  0  0  0  0  0
  -89.5246   30.9754   -2.5464 C   0  0  0  0  0  0  0  0  0  0  0  0
  -88.4171   30.1204   -2.6308 C   0  0  0  0  0  0  0  0  0  0  0  0
  -87.4687   30.1003   -1.6434 C   0  0  0  0  0  0  0  0  0  0  0  0
  -90.4781   31.0041   -3.5814 N   0  0  0  0  0  0  0  0  0  0  0  0
  -91.1189   30.1478   -3.6045 H   0  0  0  0  0  0  0  0  0  0  0  0
  -90.6655   31.9950   -4.5438 C   0  0  0  0  0  0  0  0  0  0  0  0
  -89.7131   32.8795   -4.9394 C   0  0  0  0  0  0  0  0  0  0  0  0
  -89.9858   33.8578   -5.8822 C   0  0  0  0  0  0  0  0  0  0  0  0
  -91.2518   33.9207   -6.4202 C   0  0  0  0  0  0  0  0  0  0  0  0
  -92.2243   33.0305   -6.0289 C   0  0  0  0  0  0  0  0  0  0  0  0
  -91.8954   32.1192   -5.1211 N   0  0  0  0  0  0  0  0  0  0  0  0
  -86.5641   30.8522    0.4455 O   0  0  0  0  0  0  0  0  0  0  0  0
  -84.2048   31.1758    0.9212 C   0  0  0  0  0  0  0  0  0  0  0  0
  -83.0961   31.9492    0.6122 C   0  0  0  0  0  0  0  0  0  0  0  0
  -83.1481   32.9937   -0.2943 C   0  0  0  0  0  0  0  0  0  0  0  0
  -84.3363   33.2940   -0.9250 C   0  0  0  0  0  0  0  0  0  0  0  0
  -85.4176   32.5502   -0.6329 N   0  0  0  0  0  0  0  0  0  0  0  0
  -85.3671   31.5177    0.2620 C   0  0  0  0  0  0  0  0  0  0  0  0
  -85.8005   28.5344    2.5165 C   0  0  0  0  0  0  0  0  0  0  0  0
  -85.2030   29.8786    2.8407 C   0  0  0  0  0  0  0  0  0  0  0  0
  -84.1201   30.1407    1.8783 N   0  0  0  0  0  0  0  0  0  0  0  0
  -83.0064   29.2066    2.0091 C   0  0  0  0  0  0  0  0  0  0  0  0
  -83.5632   27.8904    2.5422 C   0  0  0  0  0  0  0  0  0  0  0  0
  -84.8392   27.6426    2.0414 O   0  0  0  0  0  0  0  0  0  0  0  0
 22 23  1  0  0  0
 23 24  1  0  0  0
 24 25  1  0  0  0
 25 26  1  0  0  0
 26 27  1  0  0  0
 24 16  1  0  0  0
 16 17  2  0  0  0
 17 18  1  0  0  0
 18 19  2  0  0  0
 19 20  1  0  0  0
 20 21  2  0  0  0
 21 15  1  0  0  0
 15  1  1  0  0  0
  1  2  2  0  0  0
  2  3  1  0  0  0
  3  4  2  0  0  0
  4  7  1  0  0  0
  7  9  1  0  0  0
  9 10  2  0  0  0
 10 11  1  0  0  0
 11 12  2  0  0  0
 12 13  1  0  0  0
 13 14  2  0  0  0
  4  5  1  0  0  0
  5  6  2  0  0  0
 27 22  1  0  0  0
 21 16  1  0  0  0
  6  1  1  0  0  0
 14  9  1  0  0  0
  7  8  1  0  0  0
M  END
> <minimizedAffinity>
-7.88962

> <CNNscore>
0.1157546714

> <CNNaffinity>
5.8284306526

> <CNN_VS>
0.6746680737

> <CNNaffinity_variance>
0.1601277292

$$$$
[H]c1nc(N([H])c2c([H])c([H])c(Oc3nc([H])c([H])c([H])c3N3C([H])([H])C([H])([H])OC([H])([H])C3([H])[H])c([H])c2[H])c([H])c([H])c1[H]


 27 30  0  0  0  0  0  0  0  0999 V2000
  -89.4962   31.0242   -2.6053 C   0  0  0  0  0  0  0  0  0  0  0  0
  -89.7610   31.5946   -1.4041 C   0  0  0  0  0  0  0  0  0  0  0  0
  -88.7779   32.3361   -0.7641 C   0  0  0  0  0  0  0  0  0  0  0  0
  -87.5224   32.5379   -1.2735 C   0  0  0  0  0  0  0  0  0  0  0  0
  -87.2722   31.9394   -2.5160 C   0  0  0  0  0  0  0  0  0  0  0  0
  -88.2401   31.2075   -3.1504 C   0  0  0  0  0  0  0  0  0  0  0  0
  -86.5096   33.2657   -0.6209 N   0  0  0  0  0  0  0  0  0  0  0  0
  -86.7489   34.2965   -0.4638 H   0  0  0  0  0  0  0  0  0  0  0  0
  -85.2733   32.7999   -0.1763 C   0  0  0  0  0  0  0  0  0  0  0  0
  -84.0770   33.1344   -0.7267 C   0  0  0  0  0  0  0  0  0  0  0  0
  -82.8899   32.6046   -0.2464 C   0  0  0  0  0  0  0  0  0  0  0  0
  -82.9407   31.7238    0.8108 C   0  0  0  0  0  0  0  0  0  0  0  0
  -84.1452   31.3781    1.3773 C   0  0  0  0  0  0  0  0  0  0  0  0
  -85.2439   31.9222    0.8678 N   0  0  0  0  0  0  0  0  0  0  0  0
  -90.4428   30.2718   -3.2901 O   0  0  0  0  0  0  0  0  0  0  0  0
  -92.4830   29.5732   -2.1735 C   0  0  0  0  0  0  0  0  0  0  0  0
  -93.8252   29.8762   -2.0013 C   0  0  0  0  0  0  0  0  0  0  0  0
  -94.4292   30.9547   -2.6235 C   0  0  0  0  0  0  0  0  0  0  0  0
  -93.6877   31.7714   -3.4499 C   0  0  0  0  0  0  0  0  0  0  0  0
  -92.3852   31.4869   -3.6238 N   0  0  0  0  0  0  0  0  0  0  0  0
  -91.7873   30.4219   -3.0090 C   0  0  0  0  0  0  0  0  0  0  0  0
  -90.3664   26.8338   -2.4633 C   0  0  0  0  0  0  0  0  0  0  0  0
  -91.8224   27.1392   -2.2275 C   0  0  0  0  0  0  0  0  0  0  0  0
  -91.9112   28.4428   -1.5490 N   0  0  0  0  0  0  0  0  0  0  0  0
  -91.3216   28.4291   -0.2141 C   0  0  0  0  0  0  0  0  0  0  0  0
  -90.2154   27.3788   -0.2048 C   0  0  0  0  0  0  0  0  0  0  0  0
  -89.5624   27.3229   -1.4340 O   0  0  0  0  0  0  0  0  0  0  0  0
 22 23  1  0  0  0
 23 24  1  0  0  0
 24 25  1  0  0  0
 25 26  1  0  0  0
 26 27  1  0  0  0
 24 16  1  0  0  0
 16 17  2  0  0  0
 17 18  1  0  0  0
 18 19  2  0  0  0
 19 20  1  0  0  0
 20 21  2  0  0  0
 21 15  1  0  0  0
 15  1  1  0  0  0
  1  2  2  0  0  0
  2  3  1  0  0  0
  3  4  2  0  0  0
  4  7  1  0  0  0
  7  9  1  0  0  0
  9 10  2  0  0  0
 10 11  1  0  0  0
 11 12  2  0  0  0
 12 13  1  0  0  0
 13 14  2  0  0  0
  4  5  1  0  0  0
  5  6  2  0  0  0
 27 22  1  0  0  0
 21 16  1  0  0  0
  6  1  1  0  0  0
 14  9  1  0  0  0
  7  8  1  0  0  0
M  END
> <minimizedAffinity>
-6.93220

> <CNNscore>
0.1047321483

> <CNNaffinity>
5.2347822189

> <CNN_VS>
0.5482499599

> <CNNaffinity_variance>
0.3481613994

$$$$
[H]c1c([H])c(C(=O)N([H])c2c([H])c([H])c(C(=O)N([H])c3c([H])c([H])c(N4C([H])([H])C([H])([H])N(C([H])([H])[H])C([H])([H])C4([H])[H])c([H])c3[H])c([H])c2[H])c([H])c(C(F)(F)F)c1[H]


 37 40  0  0  0  0  0  0  0  0999 V2000
  -92.5624   27.6222   -4.2872 C   0  0  0  0  0  0  0  0  0  0  0  0
  -93.1175   26.4978   -4.8509 C   0  0  0  0  0  0  0  0  0  0  0  0
  -93.0239   25.2483   -4.2002 C   0  0  0  0  0  0  0  0  0  0  0  0
  -92.3843   25.1481   -3.0095 C   0  0  0  0  0  0  0  0  0  0  0  0
  -91.8299   26.3302   -2.4741 C   0  0  0  0  0  0  0  0  0  0  0  0
  -91.9035   27.5496   -3.0786 C   0  0  0  0  0  0  0  0  0  0  0  0
  -93.9376   29.6019   -5.0044 N   0  0  0  0  0  0  0  0  0  0  0  0
  -92.7263   28.9034   -4.9661 C   0  0  0  0  0  0  0  0  0  0  0  0
  -91.7218   29.4241   -5.5649 O   0  0  0  0  0  0  0  0  0  0  0  0
  -94.7732   29.1840   -4.4914 H   0  0  0  0  0  0  0  0  0  0  0  0
  -94.5163   33.3694   -6.8321 C   0  0  0  0  0  0  0  0  0  0  0  0
  -93.9550   33.2190   -5.5920 C   0  0  0  0  0  0  0  0  0  0  0  0
  -93.7676   31.9997   -4.9775 C   0  0  0  0  0  0  0  0  0  0  0  0
  -94.1823   30.8435   -5.6698 C   0  0  0  0  0  0  0  0  0  0  0  0
  -94.7456   30.9700   -6.9074 C   0  0  0  0  0  0  0  0  0  0  0  0
  -94.9151   32.2093   -7.4914 C   0  0  0  0  0  0  0  0  0  0  0  0
  -95.0686   38.6288   -8.2241 C   0  0  0  0  0  0  0  0  0  0  0  0
  -95.1229   37.2215   -8.5292 N   0  0  0  0  0  0  0  0  0  0  0  0
  -93.8245   36.6394   -8.3959 C   0  0  0  0  0  0  0  0  0  0  0  0
  -93.8622   35.1232   -8.4453 C   0  0  0  0  0  0  0  0  0  0  0  0
  -94.6769   34.6640   -7.3568 N   0  0  0  0  0  0  0  0  0  0  0  0
  -95.6699   35.5442   -6.8276 C   0  0  0  0  0  0  0  0  0  0  0  0
  -96.1711   36.5161   -7.8767 C   0  0  0  0  0  0  0  0  0  0  0  0
  -92.2806   23.9613   -2.2751 N   0  0  0  0  0  0  0  0  0  0  0  0
  -93.0120   23.6237   -1.1517 C   0  0  0  0  0  0  0  0  0  0  0  0
  -93.8805   24.3148   -0.6308 O   0  0  0  0  0  0  0  0  0  0  0  0
  -91.5537   23.2310   -2.6342 H   0  0  0  0  0  0  0  0  0  0  0  0
  -92.7447   22.3102   -0.4849 C   0  0  0  0  0  0  0  0  0  0  0  0
  -93.4493   21.1792   -0.8588 C   0  0  0  0  0  0  0  0  0  0  0  0
  -93.1924   19.9726   -0.2107 C   0  0  0  0  0  0  0  0  0  0  0  0
  -92.2323   19.9050    0.8072 C   0  0  0  0  0  0  0  0  0  0  0  0
  -91.5214   21.0201    1.1928 C   0  0  0  0  0  0  0  0  0  0  0  0
  -91.8136   22.2058    0.5147 C   0  0  0  0  0  0  0  0  0  0  0  0
  -90.4784   20.9806    2.2689 C   0  0  0  0  0  0  0  0  0  0  0  0
  -90.8054   20.1801    3.3162 F   0  0  0  0  0  0  0  0  0  0  0  0
  -89.2385   20.6976    1.7234 F   0  0  0  0  0  0  0  0  0  0  0  0
  -90.3931   22.2913    2.7621 F   0  0  0  0  0  0  0  0  0  0  0  0
 17 18  1  0  0  0
 18 19  1  0  0  0
 19 20  1  0  0  0
 20 21  1  0  0  0
 21 22  1  0  0  0
 22 23  1  0  0  0
 21 11  1  0  0  0
 11 12  2  0  0  0
 12 13  1  0  0  0
 13 14  2  0  0  0
 14  7  1  0  0  0
  7  8  1  0  0  0
  8  9  2  0  0  0
  8  1  1  0  0  0
  1  2  2  0  0  0
  2  3  1  0  0  0
  3  4  2  0  0  0
  4 24  1  0  0  0
 24 25  1  0  0  0
 25 26  2  0  0  0
 25 28  1  0  0  0
 28 29  2  0  0  0
 29 30  1  0  0  0
 30 31  2  0  0  0
 31 32  1  0  0  0
 32 33  2  0  0  0
 32 34  1  0  0  0
 34 35  1  0  0  0
 34 36  1  0  0  0
 34 37  1  0  0  0
  4  5  1  0  0  0
  5  6  2  0  0  0
 14 15  1  0  0  0
 15 16  2  0  0  0
 23 18  1  0  0  0
 16 11  1  0  0  0
  6  1  1  0  0  0
 33 28  1  0  0  0
  7 10  1  0  0  0
 24 27  1  0  0  0
M  END
> <minimizedAffinity>
-4.57428

> <CNNscore>
0.3792738020

> <CNNaffinity>
5.0590810776

> <CNN_VS>
1.9187768698

> <CNNaffinity_variance>
0.4721671939

$$$$
[H]c1c([H])c(C(=O)N([H])c2c([H])c([H])c(C(=O)N([H])c3c([H])c([H])c(N4C([H])([H])C([H])([H])N(C([H])([H])[H])C([H])([H])C4([H])[H])c([H])c3[H])c([H])c2[H])c([H])c(C(F)(F)F)c1[H]


 37 40  0  0  0  0  0  0  0  0999 V2000
  -92.5888   27.1839   -4.1995 C   0  0  0  0  0  0  0  0  0  0  0  0
  -93.4471   26.1498   -4.4898 C   0  0  0  0  0  0  0  0  0  0  0  0
  -93.3410   24.9171   -3.8094 C   0  0  0  0  0  0  0  0  0  0  0  0
  -92.3890   24.7441   -2.8605 C   0  0  0  0  0  0  0  0  0  0  0  0
  -91.5316   25.8345   -2.6012 C   0  0  0  0  0  0  0  0  0  0  0  0
  -91.6090   27.0353   -3.2414 C   0  0  0  0  0  0  0  0  0  0  0  0
  -93.7842   29.3641   -4.5762 N   0  0  0  0  0  0  0  0  0  0  0  0
  -92.7650   28.4583   -4.8879 C   0  0  0  0  0  0  0  0  0  0  0  0
  -91.9573   28.7748   -5.8293 O   0  0  0  0  0  0  0  0  0  0  0  0
  -94.4485   29.1163   -3.7804 H   0  0  0  0  0  0  0  0  0  0  0  0
  -94.6945   32.9625   -6.5993 C   0  0  0  0  0  0  0  0  0  0  0  0
  -95.1050   31.7328   -7.0408 C   0  0  0  0  0  0  0  0  0  0  0  0
  -94.8094   30.5494   -6.3992 C   0  0  0  0  0  0  0  0  0  0  0  0
  -94.0369   30.6147   -5.2216 C   0  0  0  0  0  0  0  0  0  0  0  0
  -93.6158   31.8304   -4.7635 C   0  0  0  0  0  0  0  0  0  0  0  0
  -93.9338   32.9949   -5.4331 C   0  0  0  0  0  0  0  0  0  0  0  0
  -96.1838   36.9718  -10.0068 C   0  0  0  0  0  0  0  0  0  0  0  0
  -95.5977   36.5020   -8.7771 N   0  0  0  0  0  0  0  0  0  0  0  0
  -96.5771   35.8112   -7.9985 C   0  0  0  0  0  0  0  0  0  0  0  0
  -95.9652   35.0698   -6.8244 C   0  0  0  0  0  0  0  0  0  0  0  0
  -95.0381   34.1051   -7.3433 N   0  0  0  0  0  0  0  0  0  0  0  0
  -94.4553   34.3386   -8.6265 C   0  0  0  0  0  0  0  0  0  0  0  0
  -94.3606   35.8192   -8.9359 C   0  0  0  0  0  0  0  0  0  0  0  0
  -92.2387   23.5737   -2.1080 N   0  0  0  0  0  0  0  0  0  0  0  0
  -92.7245   23.3482   -0.8336 C   0  0  0  0  0  0  0  0  0  0  0  0
  -93.3785   24.1433   -0.1677 O   0  0  0  0  0  0  0  0  0  0  0  0
  -91.6889   22.7594   -2.5828 H   0  0  0  0  0  0  0  0  0  0  0  0
  -92.4438   22.0324   -0.1771 C   0  0  0  0  0  0  0  0  0  0  0  0
  -93.1383   20.8976   -0.5581 C   0  0  0  0  0  0  0  0  0  0  0  0
  -92.8690   19.6887    0.0805 C   0  0  0  0  0  0  0  0  0  0  0  0
  -91.9066   19.6226    1.0963 C   0  0  0  0  0  0  0  0  0  0  0  0
  -91.2055   20.7414    1.4890 C   0  0  0  0  0  0  0  0  0  0  0  0
  -91.5099   21.9293    0.8202 C   0  0  0  0  0  0  0  0  0  0  0  0
  -90.1602   20.7038    2.5629 C   0  0  0  0  0  0  0  0  0  0  0  0
  -90.4279   19.8139    3.5535 F   0  0  0  0  0  0  0  0  0  0  0  0
  -88.9045   20.5460    2.0033 F   0  0  0  0  0  0  0  0  0  0  0  0
  -90.1668   21.9812    3.1429 F   0  0  0  0  0  0  0  0  0  0  0  0
 17 18  1  0  0  0
 18 19  1  0  0  0
 19 20  1  0  0  0
 20 21  1  0  0  0
 21 22  1  0  0  0
 22 23  1  0  0  0
 21 11  1  0  0  0
 11 12  2  0  0  0
 12 13  1  0  0  0
 13 14  2  0  0  0
 14  7  1  0  0  0
  7  8  1  0  0  0
  8  9  2  0  0  0
  8  1  1  0  0  0
  1  2  2  0  0  0
  2  3  1  0  0  0
  3  4  2  0  0  0
  4 24  1  0  0  0
 24 25  1  0  0  0
 25 26  2  0  0  0
 25 28  1  0  0  0
 28 29  2  0  0  0
 29 30  1  0  0  0
 30 31  2  0  0  0
 31 32  1  0  0  0
 32 33  2  0  0  0
 32 34  1  0  0  0
 34 35  1  0  0  0
 34 36  1  0  0  0
 34 37  1  0  0  0
  4  5  1  0  0  0
  5  6  2  0  0  0
 14 15  1  0  0  0
 15 16  2  0  0  0
 23 18  1  0  0  0
 16 11  1  0  0  0
  6  1  1  0  0  0
 33 28  1  0  0  0
  7 10  1  0  0  0
 24 27  1  0  0  0
M  END
> <minimizedAffinity>
-4.85738

> <CNNscore>
0.3672221303

> <CNNaffinity>
5.0400338173

> <CNN_VS>
1.8508119583

> <CNNaffinity_variance>
0.4115231931

$$$$
[H]c1c([H])c(C(=O)N([H])c2c([H])c([H])c(C(=O)N([H])c3c([H])c([H])c(N4C([H])([H])C([H])([H])N(C([H])([H])[H])C([H])([H])C4([H])[H])c([H])c3[H])c([H])c2[H])c([H])c(C(F)(F)F)c1[H]


 37 40  0  0  0  0  0  0  0  0999 V2000
  -91.1560   30.1255   -3.4642 C   0  0  0  0  0  0  0  0  0  0  0  0
  -91.5476   31.4209   -3.2217 C   0  0  0  0  0  0  0  0  0  0  0  0
  -92.6003   32.0025   -3.9614 C   0  0  0  0  0  0  0  0  0  0  0  0
  -93.2356   31.2845   -4.9194 C   0  0  0  0  0  0  0  0  0  0  0  0
  -92.7949   29.9608   -5.1315 C   0  0  0  0  0  0  0  0  0  0  0  0
  -91.7821   29.3726   -4.4343 C   0  0  0  0  0  0  0  0  0  0  0  0
  -89.4152   30.2602   -1.6542 N   0  0  0  0  0  0  0  0  0  0  0  0
  -90.0994   29.5448   -2.6424 C   0  0  0  0  0  0  0  0  0  0  0  0
  -89.7678   28.3221   -2.8267 O   0  0  0  0  0  0  0  0  0  0  0  0
  -89.6995   31.2729   -1.4817 H   0  0  0  0  0  0  0  0  0  0  0  0
  -86.1515   28.9802    0.7078 C   0  0  0  0  0  0  0  0  0  0  0  0
  -86.0182   29.8487   -0.3427 C   0  0  0  0  0  0  0  0  0  0  0  0
  -87.0694   30.2688   -1.1287 C   0  0  0  0  0  0  0  0  0  0  0  0
  -88.3541   29.7703   -0.8307 C   0  0  0  0  0  0  0  0  0  0  0  0
  -88.5102   28.9022    0.2120 C   0  0  0  0  0  0  0  0  0  0  0  0
  -87.4326   28.5056    0.9783 C   0  0  0  0  0  0  0  0  0  0  0  0
  -81.5814   27.0626    3.0189 C   0  0  0  0  0  0  0  0  0  0  0  0
  -82.7812   27.8601    3.0474 N   0  0  0  0  0  0  0  0  0  0  0  0
  -82.7157   28.8822    2.0505 C   0  0  0  0  0  0  0  0  0  0  0  0
  -84.0465   29.5839    1.8528 C   0  0  0  0  0  0  0  0  0  0  0  0
  -85.0067   28.6038    1.4323 N   0  0  0  0  0  0  0  0  0  0  0  0
  -84.7854   27.2364    1.7816 C   0  0  0  0  0  0  0  0  0  0  0  0
  -83.9887   27.1094    3.0645 C   0  0  0  0  0  0  0  0  0  0  0  0
  -94.3146   31.7650   -5.6701 N   0  0  0  0  0  0  0  0  0  0  0  0
  -94.2410   32.4584   -6.8637 C   0  0  0  0  0  0  0  0  0  0  0  0
  -93.2089   32.7493   -7.4581 O   0  0  0  0  0  0  0  0  0  0  0  0
  -95.3103   31.5626   -5.2721 H   0  0  0  0  0  0  0  0  0  0  0  0
  -95.5110   32.9126   -7.5134 C   0  0  0  0  0  0  0  0  0  0  0  0
  -96.5607   32.0286   -7.6925 C   0  0  0  0  0  0  0  0  0  0  0  0
  -97.7256   32.4730   -8.3148 C   0  0  0  0  0  0  0  0  0  0  0  0
  -97.8333   33.7990   -8.7539 C   0  0  0  0  0  0  0  0  0  0  0  0
  -96.7991   34.6929   -8.5844 C   0  0  0  0  0  0  0  0  0  0  0  0
  -95.6525   34.2016   -7.9559 C   0  0  0  0  0  0  0  0  0  0  0  0
  -96.8852   36.1215   -9.0305 C   0  0  0  0  0  0  0  0  0  0  0  0
  -97.8124   36.3352   -9.9998 F   0  0  0  0  0  0  0  0  0  0  0  0
  -97.0274   36.9568   -7.9364 F   0  0  0  0  0  0  0  0  0  0  0  0
  -95.6319   36.4216   -9.5850 F   0  0  0  0  0  0  0  0  0  0  0  0
 17 18  1  0  0  0
 18 19  1  0  0  0
 19 20  1  0  0  0
 20 21  1  0  0  0
 21 22  1  0  0  0
 22 23  1  0  0  0
 21 11  1  0  0  0
 11 12  2  0  0  0
 12 13  1  0  0  0
 13 14  2  0  0  0
 14  7  1  0  0  0
  7  8  1  0  0  0
  8  9  2  0  0  0
  8  1  1  0  0  0
  1  2  2  0  0  0
  2  3  1  0  0  0
  3  4  2  0  0  0
  4 24  1  0  0  0
 24 25  1  0  0  0
 25 26  2  0  0  0
 25 28  1  0  0  0
 28 29  2  0  0  0
 29 30  1  0  0  0
 30 31  2  0  0  0
 31 32  1  0  0  0
 32 33  2  0  0  0
 32 34  1  0  0  0
 34 35  1  0  0  0
 34 36  1  0  0  0
 34 37  1  0  0  0
  4  5  1  0  0  0
  5  6  2  0  0  0
 14 15  1  0  0  0
 15 16  2  0  0  0
 23 18  1  0  0  0
 16 11  1  0  0  0
  6  1  1  0  0  0
 33 28  1  0  0  0
  7 10  1  0  0  0
 24 27  1  0  0  0
M  END
> <minimizedAffinity>
-3.62559

> <CNNscore>
0.2647777498

> <CNNaffinity>
5.5797553062

> <CNN_VS>
1.4773950577

> <CNNaffinity_variance>
1.4533855915

$$$$
[H]c1c([H])c(C(=O)N([H])c2c([H])c([H])c(C(=O)N([H])c3c([H])c([H])c(N4C([H])([H])C([H])([H])N(C([H])([H])[H])C([H])([H])C4([H])[H])c([H])c3[H])c([H])c2[H])c([H])c(C(F)(F)F)c1[H]


 37 40  0  0  0  0  0  0  0  0999 V2000
  -90.8823   30.1309   -2.5923 C   0  0  0  0  0  0  0  0  0  0  0  0
  -90.4361   31.0533   -1.6755 C   0  0  0  0  0  0  0  0  0  0  0  0
  -89.9514   32.3097   -2.0998 C   0  0  0  0  0  0  0  0  0  0  0  0
  -89.9233   32.6171   -3.4195 C   0  0  0  0  0  0  0  0  0  0  0  0
  -90.3898   31.6360   -4.3201 C   0  0  0  0  0  0  0  0  0  0  0  0
  -90.8626   30.4152   -3.9409 C   0  0  0  0  0  0  0  0  0  0  0  0
  -90.6246   27.8198   -1.6347 N   0  0  0  0  0  0  0  0  0  0  0  0
  -91.4239   28.8649   -2.1095 C   0  0  0  0  0  0  0  0  0  0  0  0
  -92.6913   28.6853   -2.1194 O   0  0  0  0  0  0  0  0  0  0  0  0
  -89.5698   27.9696   -1.6051 H   0  0  0  0  0  0  0  0  0  0  0  0
  -92.1159   24.0510   -0.4337 C   0  0  0  0  0  0  0  0  0  0  0  0
  -92.8070   24.9003   -1.2562 C   0  0  0  0  0  0  0  0  0  0  0  0
  -92.3403   26.1359   -1.6499 C   0  0  0  0  0  0  0  0  0  0  0  0
  -91.0782   26.5449   -1.1728 C   0  0  0  0  0  0  0  0  0  0  0  0
  -90.3718   25.7144   -0.3505 C   0  0  0  0  0  0  0  0  0  0  0  0
  -90.8720   24.4824    0.0206 C   0  0  0  0  0  0  0  0  0  0  0  0
  -94.6155   19.2422    0.2949 C   0  0  0  0  0  0  0  0  0  0  0  0
  -93.9062   20.3936    0.7928 N   0  0  0  0  0  0  0  0  0  0  0  0
  -92.5987   20.4512    0.2186 C   0  0  0  0  0  0  0  0  0  0  0  0
  -91.9030   21.7711    0.4952 C   0  0  0  0  0  0  0  0  0  0  0  0
  -92.6957   22.8197   -0.0805 N   0  0  0  0  0  0  0  0  0  0  0  0
  -94.0934   22.5940   -0.2709 C   0  0  0  0  0  0  0  0  0  0  0  0
  -94.6430   21.6087    0.7409 C   0  0  0  0  0  0  0  0  0  0  0  0
  -89.5001   33.8513   -3.9258 N   0  0  0  0  0  0  0  0  0  0  0  0
  -88.1988   34.3146   -3.9802 C   0  0  0  0  0  0  0  0  0  0  0  0
  -87.2065   33.7025   -3.6007 O   0  0  0  0  0  0  0  0  0  0  0  0
  -90.2786   34.5052   -4.3223 H   0  0  0  0  0  0  0  0  0  0  0  0
  -87.9417   35.6786   -4.5409 C   0  0  0  0  0  0  0  0  0  0  0  0
  -86.6459   36.1416   -4.6896 C   0  0  0  0  0  0  0  0  0  0  0  0
  -86.4350   37.4214   -5.1989 C   0  0  0  0  0  0  0  0  0  0  0  0
  -87.5216   38.2301   -5.5563 C   0  0  0  0  0  0  0  0  0  0  0  0
  -88.8181   37.7865   -5.4153 C   0  0  0  0  0  0  0  0  0  0  0  0
  -88.9792   36.4979   -4.9011 C   0  0  0  0  0  0  0  0  0  0  0  0
  -90.0032   38.6203   -5.7996 C   0  0  0  0  0  0  0  0  0  0  0  0
  -89.7488   39.5002   -6.8024 F   0  0  0  0  0  0  0  0  0  0  0  0
  -91.0999   37.8111   -6.0398 F   0  0  0  0  0  0  0  0  0  0  0  0
  -90.3217   39.3740   -4.6600 F   0  0  0  0  0  0  0  0  0  0  0  0
 17 18  1  0  0  0
 18 19  1  0  0  0
 19 20  1  0  0  0
 20 21  1  0  0  0
 21 22  1  0  0  0
 22 23  1  0  0  0
 21 11  1  0  0  0
 11 12  2  0  0  0
 12 13  1  0  0  0
 13 14  2  0  0  0
 14  7  1  0  0  0
  7  8  1  0  0  0
  8  9  2  0  0  0
  8  1  1  0  0  0
  1  2  2  0  0  0
  2  3  1  0  0  0
  3  4  2  0  0  0
  4 24  1  0  0  0
 24 25  1  0  0  0
 25 26  2  0  0  0
 25 28  1  0  0  0
 28 29  2  0  0  0
 29 30  1  0  0  0
 30 31  2  0  0  0
 31 32  1  0  0  0
 32 33  2  0  0  0
 32 34  1  0  0  0
 34 35  1  0  0  0
 34 36  1  0  0  0
 34 37  1  0  0  0
  4  5  1  0  0  0
  5  6  2  0  0  0
 14 15  1  0  0  0
 15 16  2  0  0  0
 23 18  1  0  0  0
 16 11  1  0  0  0
  6  1  1  0  0  0
 33 28  1  0  0  0
  7 10  1  0  0  0
 24 27  1  0  0  0
M  END
> <minimizedAffinity>
-5.00179

> <CNNscore>
0.2214785814

> <CNNaffinity>
5.1901855469

> <CNN_VS>
1.1495149136

> <CNNaffinity_variance>
0.2217533141

$$$$
[H]c1c([H])c(C(=O)N([H])c2c([H])c([H])c(C(=O)N([H])c3c([H])c([H])c(N4C([H])([H])C([H])([H])N(C([H])([H])[H])C([H])([H])C4([H])[H])c([H])c3[H])c([H])c2[H])c([H])c(C(F)(F)F)c1[H]


 37 40  0  0  0  0  0  0  0  0999 V2000
  -90.0724   29.6402   -1.3971 C   0  0  0  0  0  0  0  0  0  0  0  0
  -89.3661   28.6337   -0.7820 C   0  0  0  0  0  0  0  0  0  0  0  0
  -89.9683   27.3801   -0.5384 C   0  0  0  0  0  0  0  0  0  0  0  0
  -91.2522   27.1587   -0.9117 C   0  0  0  0  0  0  0  0  0  0  0  0
  -91.9346   28.2239   -1.5370 C   0  0  0  0  0  0  0  0  0  0  0  0
  -91.3806   29.4443   -1.7848 C   0  0  0  0  0  0  0  0  0  0  0  0
  -89.6610   31.6784   -2.8116 N   0  0  0  0  0  0  0  0  0  0  0  0
  -89.3975   30.9030   -1.6776 C   0  0  0  0  0  0  0  0  0  0  0  0
  -88.5145   31.3333   -0.8567 O   0  0  0  0  0  0  0  0  0  0  0  0
  -90.4090   31.3364   -3.4895 H   0  0  0  0  0  0  0  0  0  0  0  0
  -87.9564   35.4213   -3.7887 C   0  0  0  0  0  0  0  0  0  0  0  0
  -89.2936   35.2493   -3.5485 C   0  0  0  0  0  0  0  0  0  0  0  0
  -89.8673   34.0352   -3.2382 C   0  0  0  0  0  0  0  0  0  0  0  0
  -89.0237   32.9078   -3.1678 C   0  0  0  0  0  0  0  0  0  0  0  0
  -87.6869   33.0559   -3.4046 C   0  0  0  0  0  0  0  0  0  0  0  0
  -87.1485   34.2895   -3.7110 C   0  0  0  0  0  0  0  0  0  0  0  0
  -86.3431   40.2860   -5.6955 C   0  0  0  0  0  0  0  0  0  0  0  0
  -86.3770   39.2693   -4.6748 N   0  0  0  0  0  0  0  0  0  0  0  0
  -87.7169   39.0789   -4.2155 C   0  0  0  0  0  0  0  0  0  0  0  0
  -87.8585   37.8490   -3.3380 C   0  0  0  0  0  0  0  0  0  0  0  0
  -87.4804   36.7035   -4.1153 N   0  0  0  0  0  0  0  0  0  0  0  0
  -86.5934   36.8893   -5.2196 C   0  0  0  0  0  0  0  0  0  0  0  0
  -85.6766   38.0770   -5.0059 C   0  0  0  0  0  0  0  0  0  0  0  0
  -91.9141   25.9364   -0.7485 N   0  0  0  0  0  0  0  0  0  0  0  0
  -92.1534   24.9940   -1.7313 C   0  0  0  0  0  0  0  0  0  0  0  0
  -91.8069   25.0817   -2.9041 O   0  0  0  0  0  0  0  0  0  0  0  0
  -92.2675   25.7071    0.2581 H   0  0  0  0  0  0  0  0  0  0  0  0
  -92.9007   23.7484   -1.3693 C   0  0  0  0  0  0  0  0  0  0  0  0
  -93.3332   23.5439   -0.0706 C   0  0  0  0  0  0  0  0  0  0  0  0
  -94.0124   22.3683    0.2430 C   0  0  0  0  0  0  0  0  0  0  0  0
  -94.2548   21.4046   -0.7444 C   0  0  0  0  0  0  0  0  0  0  0  0
  -93.8319   21.5906   -2.0421 C   0  0  0  0  0  0  0  0  0  0  0  0
  -93.1559   22.7836   -2.3081 C   0  0  0  0  0  0  0  0  0  0  0  0
  -94.0855   20.5864   -3.1259 C   0  0  0  0  0  0  0  0  0  0  0  0
  -93.2709   20.7294   -4.2033 F   0  0  0  0  0  0  0  0  0  0  0  0
  -94.0874   19.3060   -2.6010 F   0  0  0  0  0  0  0  0  0  0  0  0
  -95.3963   20.8257   -3.5650 F   0  0  0  0  0  0  0  0  0  0  0  0
 17 18  1  0  0  0
 18 19  1  0  0  0
 19 20  1  0  0  0
 20 21  1  0  0  0
 21 22  1  0  0  0
 22 23  1  0  0  0
 21 11  1  0  0  0
 11 12  2  0  0  0
 12 13  1  0  0  0
 13 14  2  0  0  0
 14  7  1  0  0  0
  7  8  1  0  0  0
  8  9  2  0  0  0
  8  1  1  0  0  0
  1  2  2  0  0  0
  2  3  1  0  0  0
  3  4  2  0  0  0
  4 24  1  0  0  0
 24 25  1  0  0  0
 25 26  2  0  0  0
 25 28  1  0  0  0
 28 29  2  0  0  0
 29 30  1  0  0  0
 30 31  2  0  0  0
 31 32  1  0  0  0
 32 33  2  0  0  0
 32 34  1  0  0  0
 34 35  1  0  0  0
 34 36  1  0  0  0
 34 37  1  0  0  0
  4  5  1  0  0  0
  5  6  2  0  0  0
 14 15  1  0  0  0
 15 16  2  0  0  0
 23 18  1  0  0  0
 16 11  1  0  0  0
  6  1  1  0  0  0
 33 28  1  0  0  0
  7 10  1  0  0  0
 24 27  1  0  0  0
M  END
> <minimizedAffinity>
-5.72684

> <CNNscore>
0.2145051509

> <CNNaffinity>
5.2513117790

> <CNN_VS>
1.1264333725

> <CNNaffinity_variance>
0.0658113584

$$$$
[H]c1c([H])c(C(=O)N([H])c2c([H])c([H])c(C(=O)N([H])c3c([H])c([H])c(N4C([H])([H])C([H])([H])N(C([H])([H])[H])C([H])([H])C4([H])[H])c([H])c3[H])c([H])c2[H])c([H])c(C(F)(F)F)c1[H]


 37 40  0  0  0  0  0  0  0  0999 V2000
  -91.4725   25.6442   -2.6567 C   0  0  0  0  0  0  0  0  0  0  0  0
  -92.3807   24.6122   -2.6355 C   0  0  0  0  0  0  0  0  0  0  0  0
  -92.1778   23.4952   -1.7960 C   0  0  0  0  0  0  0  0  0  0  0  0
  -91.0820   23.4325   -1.0010 C   0  0  0  0  0  0  0  0  0  0  0  0
  -90.1791   24.5154   -1.0611 C   0  0  0  0  0  0  0  0  0  0  0  0
  -90.3476   25.6060   -1.8610 C   0  0  0  0  0  0  0  0  0  0  0  0
  -92.1997   28.0276   -2.9959 N   0  0  0  0  0  0  0  0  0  0  0  0
  -91.7455   26.8040   -3.4989 C   0  0  0  0  0  0  0  0  0  0  0  0
  -91.5698   26.7108   -4.7635 O   0  0  0  0  0  0  0  0  0  0  0  0
  -92.3294   28.1187   -1.9419 H   0  0  0  0  0  0  0  0  0  0  0  0
  -93.3416   31.4136   -5.2544 C   0  0  0  0  0  0  0  0  0  0  0  0
  -94.1108   30.2845   -5.1601 C   0  0  0  0  0  0  0  0  0  0  0  0
  -93.7497   29.1685   -4.4364 C   0  0  0  0  0  0  0  0  0  0  0  0
  -92.5142   29.1959   -3.7578 C   0  0  0  0  0  0  0  0  0  0  0  0
  -91.7304   30.3114   -3.8386 C   0  0  0  0  0  0  0  0  0  0  0  0
  -92.1272   31.4112   -4.5725 C   0  0  0  0  0  0  0  0  0  0  0  0
  -95.6722   35.2019   -8.4357 C   0  0  0  0  0  0  0  0  0  0  0  0
  -94.5611   34.6927   -7.6724 N   0  0  0  0  0  0  0  0  0  0  0  0
  -94.9215   34.5823   -6.2938 C   0  0  0  0  0  0  0  0  0  0  0  0
  -93.8936   33.8110   -5.4870 C   0  0  0  0  0  0  0  0  0  0  0  0
  -93.7994   32.4887   -6.0365 N   0  0  0  0  0  0  0  0  0  0  0  0
  -94.1634   32.2891   -7.4034 C   0  0  0  0  0  0  0  0  0  0  0  0
  -93.9413   33.5404   -8.2291 C   0  0  0  0  0  0  0  0  0  0  0  0
  -90.8225   22.3862   -0.1085 N   0  0  0  0  0  0  0  0  0  0  0  0
  -91.3133   22.2628    1.1780 C   0  0  0  0  0  0  0  0  0  0  0  0
  -92.0686   23.0533    1.7329 O   0  0  0  0  0  0  0  0  0  0  0  0
  -90.1734   21.5881   -0.4726 H   0  0  0  0  0  0  0  0  0  0  0  0
  -90.9055   21.0764    1.9948 C   0  0  0  0  0  0  0  0  0  0  0  0
  -91.5944   19.8810    1.8854 C   0  0  0  0  0  0  0  0  0  0  0  0
  -91.2043   18.7969    2.6692 C   0  0  0  0  0  0  0  0  0  0  0  0
  -90.1275   18.9153    3.5575 C   0  0  0  0  0  0  0  0  0  0  0  0
  -89.4302   20.0970    3.6800 C   0  0  0  0  0  0  0  0  0  0  0  0
  -89.8579   21.1548    2.8743 C   0  0  0  0  0  0  0  0  0  0  0  0
  -88.2656   20.2546    4.6107 C   0  0  0  0  0  0  0  0  0  0  0  0
  -87.0598   20.0858    4.0088 F   0  0  0  0  0  0  0  0  0  0  0  0
  -88.3712   21.4428    5.3123 F   0  0  0  0  0  0  0  0  0  0  0  0
  -88.3992   19.2317    5.5615 F   0  0  0  0  0  0  0  0  0  0  0  0
 17 18  1  0  0  0
 18 19  1  0  0  0
 19 20  1  0  0  0
 20 21  1  0  0  0
 21 22  1  0  0  0
 22 23  1  0  0  0
 21 11  1  0  0  0
 11 12  2  0  0  0
 12 13  1  0  0  0
 13 14  2  0  0  0
 14  7  1  0  0  0
  7  8  1  0  0  0
  8  9  2  0  0  0
  8  1  1  0  0  0
  1  2  2  0  0  0
  2  3  1  0  0  0
  3  4  2  0  0  0
  4 24  1  0  0  0
 24 25  1  0  0  0
 25 26  2  0  0  0
 25 28  1  0  0  0
 28 29  2  0  0  0
 29 30  1  0  0  0
 30 31  2  0  0  0
 31 32  1  0  0  0
 32 33  2  0  0  0
 32 34  1  0  0  0
 34 35  1  0  0  0
 34 36  1  0  0  0
 34 37  1  0  0  0
  4  5  1  0  0  0
  5  6  2  0  0  0
 14 15  1  0  0  0
 15 16  2  0  0  0
 23 18  1  0  0  0
 16 11  1  0  0  0
  6  1  1  0  0  0
 33 28  1  0  0  0
  7 10  1  0  0  0
 24 27  1  0  0  0
M  END
> <minimizedAffinity>
-6.94251

> <CNNscore>
0.2055210173

> <CNNaffinity>
4.9883947372

> <CNN_VS>
1.0252199173

> <CNNaffinity_variance>
0.3774608374

$$$$
[H]c1c([H])c(C(=O)N([H])c2c([H])c([H])c(C(=O)N([H])c3c([H])c([H])c(N4C([H])([H])C([H])([H])N(C([H])([H])[H])C([H])([H])C4([H])[H])c([H])c3[H])c([H])c2[H])c([H])c(C(F)(F)F)c1[H]


 37 40  0  0  0  0  0  0  0  0999 V2000
  -91.0075   29.5195   -2.5022 C   0  0  0  0  0  0  0  0  0  0  0  0
  -91.6290   29.8046   -3.6949 C   0  0  0  0  0  0  0  0  0  0  0  0
  -91.4978   31.0806   -4.2851 C   0  0  0  0  0  0  0  0  0  0  0  0
  -90.7541   32.0372   -3.6779 C   0  0  0  0  0  0  0  0  0  0  0  0
  -90.1386   31.6957   -2.4548 C   0  0  0  0  0  0  0  0  0  0  0  0
  -90.2473   30.4739   -1.8607 C   0  0  0  0  0  0  0  0  0  0  0  0
  -90.0641   27.4996   -1.3383 N   0  0  0  0  0  0  0  0  0  0  0  0
  -91.1252   28.1732   -1.9521 C   0  0  0  0  0  0  0  0  0  0  0  0
  -92.2481   27.5636   -2.0320 O   0  0  0  0  0  0  0  0  0  0  0  0
  -89.1317   28.0085   -1.2505 H   0  0  0  0  0  0  0  0  0  0  0  0
  -90.2642   23.6620    0.4231 C   0  0  0  0  0  0  0  0  0  0  0  0
  -90.4688   24.8187    1.1271 C   0  0  0  0  0  0  0  0  0  0  0  0
  -90.3981   26.0778    0.5712 C   0  0  0  0  0  0  0  0  0  0  0  0
  -90.0946   26.1745   -0.8022 C   0  0  0  0  0  0  0  0  0  0  0  0
  -89.8857   25.0339   -1.5237 C   0  0  0  0  0  0  0  0  0  0  0  0
  -89.9670   23.7895   -0.9316 C   0  0  0  0  0  0  0  0  0  0  0  0
  -91.2124   19.0544    3.2113 C   0  0  0  0  0  0  0  0  0  0  0  0
  -90.3353   19.9565    2.5089 N   0  0  0  0  0  0  0  0  0  0  0  0
  -90.7427   20.0748    1.1442 C   0  0  0  0  0  0  0  0  0  0  0  0
  -90.0280   21.2022    0.4226 C   0  0  0  0  0  0  0  0  0  0  0  0
  -90.3428   22.4298    1.0959 N   0  0  0  0  0  0  0  0  0  0  0  0
  -90.7206   22.3769    2.4726 C   0  0  0  0  0  0  0  0  0  0  0  0
  -90.0976   21.1887    3.1775 C   0  0  0  0  0  0  0  0  0  0  0  0
  -90.5350   33.3126   -4.2106 N   0  0  0  0  0  0  0  0  0  0  0  0
  -89.3857   33.7540   -4.8396 C   0  0  0  0  0  0  0  0  0  0  0  0
  -88.3787   33.0837   -5.0394 O   0  0  0  0  0  0  0  0  0  0  0  0
  -91.3594   34.0223   -4.1244 H   0  0  0  0  0  0  0  0  0  0  0  0
  -89.3288   35.1678   -5.3285 C   0  0  0  0  0  0  0  0  0  0  0  0
  -90.4633   35.7811   -5.8307 C   0  0  0  0  0  0  0  0  0  0  0  0
  -90.3790   37.0925   -6.2943 C   0  0  0  0  0  0  0  0  0  0  0  0
  -89.1603   37.7822   -6.2527 C   0  0  0  0  0  0  0  0  0  0  0  0
  -88.0208   37.1882   -5.7566 C   0  0  0  0  0  0  0  0  0  0  0  0
  -88.1547   35.8736   -5.3038 C   0  0  0  0  0  0  0  0  0  0  0  0
  -86.7039   37.9010   -5.6855 C   0  0  0  0  0  0  0  0  0  0  0  0
  -85.9747   37.8146   -6.8281 F   0  0  0  0  0  0  0  0  0  0  0  0
  -86.8859   39.1996   -5.2432 F   0  0  0  0  0  0  0  0  0  0  0  0
  -85.9742   37.2493   -4.6800 F   0  0  0  0  0  0  0  0  0  0  0  0
 17 18  1  0  0  0
 18 19  1  0  0  0
 19 20  1  0  0  0
 20 21  1  0  0  0
 21 22  1  0  0  0
 22 23  1  0  0  0
 21 11  1  0  0  0
 11 12  2  0  0  0
 12 13  1  0  0  0
 13 14  2  0  0  0
 14  7  1  0  0  0
  7  8  1  0  0  0
  8  9  2  0  0  0
  8  1  1  0  0  0
  1  2  2  0  0  0
  2  3  1  0  0  0
  3  4  2  0  0  0
  4 24  1  0  0  0
 24 25  1  0  0  0
 25 26  2  0  0  0
 25 28  1  0  0  0
 28 29  2  0  0  0
 29 30  1  0  0  0
 30 31  2  0  0  0
 31 32  1  0  0  0
 32 33  2  0  0  0
 32 34  1  0  0  0
 34 35  1  0  0  0
 34 36  1  0  0  0
 34 37  1  0  0  0
  4  5  1  0  0  0
  5  6  2  0  0  0
 14 15  1  0  0  0
 15 16  2  0  0  0
 23 18  1  0  0  0
 16 11  1  0  0  0
  6  1  1  0  0  0
 33 28  1  0  0  0
  7 10  1  0  0  0
 24 27  1  0  0  0
M  END
> <minimizedAffinity>
-6.29552

> <CNNscore>
0.1403388530

> <CNNaffinity>
5.1536879539

> <CNN_VS>
0.7232626677

> <CNNaffinity_variance>
0.0945383757

$$$$
[H]c1c([H])c(C(=O)N([H])c2c([H])c([H])c(C(=O)N([H])c3c([H])c([H])c(N4C([H])([H])C([H])([H])N(C([H])([H])[H])C([H])([H])C4([H])[H])c([H])c3[H])c([H])c2[H])c([H])c(C(F)(F)F)c1[H]


 37 40  0  0  0  0  0  0  0  0999 V2000
  -88.6036   30.9266   -2.7067 C   0  0  0  0  0  0  0  0  0  0  0  0
  -88.7499   32.1072   -2.0173 C   0  0  0  0  0  0  0  0  0  0  0  0
  -88.3130   33.3258   -2.5810 C   0  0  0  0  0  0  0  0  0  0  0  0
  -87.7448   33.3407   -3.8113 C   0  0  0  0  0  0  0  0  0  0  0  0
  -87.6153   32.1029   -4.4766 C   0  0  0  0  0  0  0  0  0  0  0  0
  -88.0266   30.9113   -3.9584 C   0  0  0  0  0  0  0  0  0  0  0  0
  -88.5922   28.4310   -2.3960 N   0  0  0  0  0  0  0  0  0  0  0  0
  -89.1153   29.6967   -2.1114 C   0  0  0  0  0  0  0  0  0  0  0  0
  -90.0946   29.7628   -1.2895 O   0  0  0  0  0  0  0  0  0  0  0  0
  -87.7639   28.3701   -3.0642 H   0  0  0  0  0  0  0  0  0  0  0  0
  -90.0600   24.7006   -1.0549 C   0  0  0  0  0  0  0  0  0  0  0  0
  -90.5523   25.3438   -2.1591 C   0  0  0  0  0  0  0  0  0  0  0  0
  -90.0922   26.5641   -2.6047 C   0  0  0  0  0  0  0  0  0  0  0  0
  -89.0560   27.1827   -1.8758 C   0  0  0  0  0  0  0  0  0  0  0  0
  -88.5506   26.5597   -0.7705 C   0  0  0  0  0  0  0  0  0  0  0  0
  -89.0364   25.3359   -0.3560 C   0  0  0  0  0  0  0  0  0  0  0  0
  -92.3173   20.1775    1.0308 C   0  0  0  0  0  0  0  0  0  0  0  0
  -91.6222   20.8841   -0.0151 N   0  0  0  0  0  0  0  0  0  0  0  0
  -92.4445   21.9339   -0.5293 C   0  0  0  0  0  0  0  0  0  0  0  0
  -91.6792   22.8744   -1.4415 C   0  0  0  0  0  0  0  0  0  0  0  0
  -90.6168   23.4654   -0.6790 N   0  0  0  0  0  0  0  0  0  0  0  0
  -90.1219   22.7629    0.4623 C   0  0  0  0  0  0  0  0  0  0  0  0
  -90.2918   21.2644    0.3127 C   0  0  0  0  0  0  0  0  0  0  0  0
  -87.3227   34.5047   -4.4635 N   0  0  0  0  0  0  0  0  0  0  0  0
  -88.0308   35.2173   -5.4132 C   0  0  0  0  0  0  0  0  0  0  0  0
  -89.1531   34.9415   -5.8227 O   0  0  0  0  0  0  0  0  0  0  0  0
  -86.3392   34.8869   -4.1851 H   0  0  0  0  0  0  0  0  0  0  0  0
  -87.4028   36.4340   -6.0184 C   0  0  0  0  0  0  0  0  0  0  0  0
  -86.3653   37.0819   -5.3709 C   0  0  0  0  0  0  0  0  0  0  0  0
  -85.8094   38.2219   -5.9482 C   0  0  0  0  0  0  0  0  0  0  0  0
  -86.2947   38.7065   -7.1697 C   0  0  0  0  0  0  0  0  0  0  0  0
  -87.3265   38.0751   -7.8286 C   0  0  0  0  0  0  0  0  0  0  0  0
  -87.8511   36.9372   -7.2113 C   0  0  0  0  0  0  0  0  0  0  0  0
  -87.8615   38.5590   -9.1428 C   0  0  0  0  0  0  0  0  0  0  0  0
  -88.2743   39.8528   -9.1205 F   0  0  0  0  0  0  0  0  0  0  0  0
  -86.9607   38.2840  -10.1566 F   0  0  0  0  0  0  0  0  0  0  0  0
  -88.9913   37.7698   -9.4056 F   0  0  0  0  0  0  0  0  0  0  0  0
 17 18  1  0  0  0
 18 19  1  0  0  0
 19 20  1  0  0  0
 20 21  1  0  0  0
 21 22  1  0  0  0
 22 23  1  0  0  0
 21 11  1  0  0  0
 11 12  2  0  0  0
 12 13  1  0  0  0
 13 14  2  0  0  0
 14  7  1  0  0  0
  7  8  1  0  0  0
  8  9  2  0  0  0
  8  1  1  0  0  0
  1  2  2  0  0  0
  2  3  1  0  0  0
  3  4  2  0  0  0
  4 24  1  0  0  0
 24 25  1  0  0  0
 25 26  2  0  0  0
 25 28  1  0  0  0
 28 29  2  0  0  0
 29 30  1  0  0  0
 30 31  2  0  0  0
 31 32  1  0  0  0
 32 33  2  0  0  0
 32 34  1  0  0  0
 34 35  1  0  0  0
 34 36  1  0  0  0
 34 37  1  0  0  0
  4  5  1  0  0  0
  5  6  2  0  0  0
 14 15  1  0  0  0
 15 16  2  0  0  0
 23 18  1  0  0  0
 16 11  1  0  0  0
  6  1  1  0  0  0
 33 28  1  0  0  0
  7 10  1  0  0  0
 24 27  1  0  0  0
M  END
> <minimizedAffinity>
-7.95263

> <CNNscore>
0.1106195226

> <CNNaffinity>
5.1282739639

> <CNN_VS>
0.5672872066

> <CNNaffinity_variance>
0.1184190959

$$$$
[H]c1c([H])c(C(=O)N([H])c2c([H])c([H])c(C(=O)N([H])c3c([H])c([H])c(N4C([H])([H])C([H])([H])N(C([H])([H])[H])C([H])([H])C4([H])[H])c([H])c3[H])c([H])c2[H])c([H])c(C(F)(F)F)c1[H]


 37 40  0  0  0  0  0  0  0  0999 V2000
  -87.8986   31.5694   -1.9348 C   0  0  0  0  0  0  0  0  0  0  0  0
  -87.2325   32.5905   -1.2992 C   0  0  0  0  0  0  0  0  0  0  0  0
  -86.7864   33.7169   -2.0245 C   0  0  0  0  0  0  0  0  0  0  0  0
  -87.0135   33.8003   -3.3580 C   0  0  0  0  0  0  0  0  0  0  0  0
  -87.6990   32.7257   -3.9636 C   0  0  0  0  0  0  0  0  0  0  0  0
  -88.1409   31.6260   -3.2905 C   0  0  0  0  0  0  0  0  0  0  0  0
  -87.9906   29.1242   -1.3544 N   0  0  0  0  0  0  0  0  0  0  0  0
  -88.3887   30.4479   -1.1405 C   0  0  0  0  0  0  0  0  0  0  0  0
  -89.2290   30.6703   -0.2006 O   0  0  0  0  0  0  0  0  0  0  0  0
  -87.2763   28.9339   -2.1223 H   0  0  0  0  0  0  0  0  0  0  0  0
  -89.4279   25.6470    0.5725 C   0  0  0  0  0  0  0  0  0  0  0  0
  -89.9058   26.0840   -0.6341 C   0  0  0  0  0  0  0  0  0  0  0  0
  -89.4557   27.2199   -1.2717 C   0  0  0  0  0  0  0  0  0  0  0  0
  -88.4458   27.9732   -0.6387 C   0  0  0  0  0  0  0  0  0  0  0  0
  -87.9550   27.5565    0.5657 C   0  0  0  0  0  0  0  0  0  0  0  0
  -88.4303   26.4113    1.1727 C   0  0  0  0  0  0  0  0  0  0  0  0
  -90.9500   20.8135    2.6279 C   0  0  0  0  0  0  0  0  0  0  0  0
  -91.2317   22.1679    2.2246 N   0  0  0  0  0  0  0  0  0  0  0  0
  -90.4704   23.0841    3.0142 C   0  0  0  0  0  0  0  0  0  0  0  0
  -90.5207   24.4991    2.4684 C   0  0  0  0  0  0  0  0  0  0  0  0
  -89.9730   24.4827    1.1420 N   0  0  0  0  0  0  0  0  0  0  0  0
  -90.0097   23.2610    0.4025 C   0  0  0  0  0  0  0  0  0  0  0  0
  -91.1767   22.3895    0.8211 C   0  0  0  0  0  0  0  0  0  0  0  0
  -86.6455   34.8962   -4.1466 N   0  0  0  0  0  0  0  0  0  0  0  0
  -87.3236   36.0962   -4.2536 C   0  0  0  0  0  0  0  0  0  0  0  0
  -88.3540   36.3897   -3.6575 O   0  0  0  0  0  0  0  0  0  0  0  0
  -85.7274   34.7896   -4.7267 H   0  0  0  0  0  0  0  0  0  0  0  0
  -86.7845   37.1500   -5.1701 C   0  0  0  0  0  0  0  0  0  0  0  0
  -85.7729   37.9947   -4.7473 C   0  0  0  0  0  0  0  0  0  0  0  0
  -85.3005   38.9777   -5.6146 C   0  0  0  0  0  0  0  0  0  0  0  0
  -85.8428   39.1096   -6.8995 C   0  0  0  0  0  0  0  0  0  0  0  0
  -86.8500   38.2782   -7.3378 C   0  0  0  0  0  0  0  0  0  0  0  0
  -87.2903   37.3090   -6.4335 C   0  0  0  0  0  0  0  0  0  0  0  0
  -87.4440   38.3831   -8.7101 C   0  0  0  0  0  0  0  0  0  0  0  0
  -86.5967   38.0037   -9.7016 F   0  0  0  0  0  0  0  0  0  0  0  0
  -88.6677   37.7383   -8.7525 F   0  0  0  0  0  0  0  0  0  0  0  0
  -87.7188   39.7456   -8.9009 F   0  0  0  0  0  0  0  0  0  0  0  0
 17 18  1  0  0  0
 18 19  1  0  0  0
 19 20  1  0  0  0
 20 21  1  0  0  0
 21 22  1  0  0  0
 22 23  1  0  0  0
 21 11  1  0  0  0
 11 12  2  0  0  0
 12 13  1  0  0  0
 13 14  2  0  0  0
 14  7  1  0  0  0
  7  8  1  0  0  0
  8  9  2  0  0  0
  8  1  1  0  0  0
  1  2  2  0  0  0
  2  3  1  0  0  0
  3  4  2  0  0  0
  4 24  1  0  0  0
 24 25  1  0  0  0
 25 26  2  0  0  0
 25 28  1  0  0  0
 28 29  2  0  0  0
 29 30  1  0  0  0
 30 31  2  0  0  0
 31 32  1  0  0  0
 32 33  2  0  0  0
 32 34  1  0  0  0
 34 35  1  0  0  0
 34 36  1  0  0  0
 34 37  1  0  0  0
  4  5  1  0  0  0
  5  6  2  0  0  0
 14 15  1  0  0  0
 15 16  2  0  0  0
 23 18  1  0  0  0
 16 11  1  0  0  0
  6  1  1  0  0  0
 33 28  1  0  0  0
  7 10  1  0  0  0
 24 27  1  0  0  0
M  END
> <minimizedAffinity>
-7.80526

> <CNNscore>
0.1047497243

> <CNNaffinity>
5.2392730713

> <CNN_VS>
0.5488123894

> <CNNaffinity_variance>
0.1606092751

$$$$
[H]c1sc2c([H])c([H])c([H])c([H])c2c1-c1c(N([H])[H])nc(C([H])([H])[H])n1-c1c([H])c([H])c(F)c([H])c1[H]


 25 28  0  0  0  0  0  0  0  0999 V2000
  -82.6949   32.8742    0.1088 C   0  0  0  0  0  0  0  0  0  0  0  0
  -84.0171   32.8818   -0.6032 C   0  0  0  0  0  0  0  0  0  0  0  0
  -84.4338   33.6866   -1.5478 N   0  0  0  0  0  0  0  0  0  0  0  0
  -85.7034   33.3273   -1.9090 C   0  0  0  0  0  0  0  0  0  0  0  0
  -86.2742   33.9800   -3.0475 N   0  0  0  0  0  0  0  0  0  0  0  0
  -86.0850   32.2632   -1.1526 C   0  0  0  0  0  0  0  0  0  0  0  0
  -85.0193   31.9787   -0.3284 N   0  0  0  0  0  0  0  0  0  0  0  0
  -86.7252   33.4741   -3.8398 H   0  0  0  0  0  0  0  0  0  0  0  0
  -86.2500   35.0207   -3.1117 H   0  0  0  0  0  0  0  0  0  0  0  0
  -87.4556   31.6713   -0.9618 C   0  0  0  0  0  0  0  0  0  0  0  0
  -88.5012   32.5388   -0.6753 C   0  0  0  0  0  0  0  0  0  0  0  0
  -89.8990   31.5956   -0.7208 S   0  0  0  0  0  0  0  0  0  0  0  0
  -89.1894   30.0958   -1.1021 C   0  0  0  0  0  0  0  0  0  0  0  0
  -89.7702   28.8364   -1.3459 C   0  0  0  0  0  0  0  0  0  0  0  0
  -88.9884   27.7706   -1.7070 C   0  0  0  0  0  0  0  0  0  0  0  0
  -87.6633   28.0141   -1.8095 C   0  0  0  0  0  0  0  0  0  0  0  0
  -87.1038   29.2262   -1.5735 C   0  0  0  0  0  0  0  0  0  0  0  0
  -87.8420   30.3745   -1.1894 C   0  0  0  0  0  0  0  0  0  0  0  0
  -84.8088   31.0358    0.7174 C   0  0  0  0  0  0  0  0  0  0  0  0
  -85.1624   31.3393    2.0358 C   0  0  0  0  0  0  0  0  0  0  0  0
  -85.0435   30.4587    3.0719 C   0  0  0  0  0  0  0  0  0  0  0  0
  -84.5530   29.1997    2.8361 C   0  0  0  0  0  0  0  0  0  0  0  0
  -84.4146   28.2787    3.8451 F   0  0  0  0  0  0  0  0  0  0  0  0
  -84.2027   28.8956    1.5366 C   0  0  0  0  0  0  0  0  0  0  0  0
  -84.3178   29.7712    0.4892 C   0  0  0  0  0  0  0  0  0  0  0  0
  1  2  1  0  0  0
  2  3  2  0  0  0
  3  4  1  0  0  0
  4  5  1  0  0  0
  4  6  2  0  0  0
  6 10  1  0  0  0
 10 11  2  0  0  0
 11 12  1  0  0  0
 12 13  1  0  0  0
 13 14  2  0  0  0
 14 15  1  0  0  0
 15 16  2  0  0  0
 16 17  1  0  0  0
 17 18  2  0  0  0
  6  7  1  0  0  0
  7 19  1  0  0  0
 19 20  2  0  0  0
 20 21  1  0  0  0
 21 22  2  0  0  0
 22 23  1  0  0  0
 22 24  1  0  0  0
 24 25  2  0  0  0
  7  2  1  0  0  0
 25 19  1  0  0  0
 18 10  1  0  0  0
 18 13  1  0  0  0
  5  8  1  0  0  0
  5  9  1  0  0  0
M  END
> <minimizedAffinity>
-7.94046

> <CNNscore>
0.8303390145

> <CNNaffinity>
6.7670745850

> <CNN_VS>
5.6189661026

> <CNNaffinity_variance>
0.2196055204

$$$$
[H]c1sc2c([H])c([H])c([H])c([H])c2c1-c1c(N([H])[H])nc(C([H])([H])[H])n1-c1c([H])c([H])c(F)c([H])c1[H]


 25 28  0  0  0  0  0  0  0  0999 V2000
  -83.3394   31.9063    0.8680 C   0  0  0  0  0  0  0  0  0  0  0  0
  -84.4828   32.3168   -0.0147 C   0  0  0  0  0  0  0  0  0  0  0  0
  -84.6564   33.4429   -0.6593 N   0  0  0  0  0  0  0  0  0  0  0  0
  -85.8384   33.3840   -1.3455 C   0  0  0  0  0  0  0  0  0  0  0  0
  -86.1291   34.4541   -2.2501 N   0  0  0  0  0  0  0  0  0  0  0  0
  -86.4177   32.1763   -1.1090 C   0  0  0  0  0  0  0  0  0  0  0  0
  -85.5610   31.4995   -0.2699 N   0  0  0  0  0  0  0  0  0  0  0  0
  -86.4285   34.3120   -3.2386 H   0  0  0  0  0  0  0  0  0  0  0  0
  -86.0439   35.4416   -1.9257 H   0  0  0  0  0  0  0  0  0  0  0  0
  -87.8238   31.7211   -1.3930 C   0  0  0  0  0  0  0  0  0  0  0  0
  -88.6832   31.5621   -0.3140 C   0  0  0  0  0  0  0  0  0  0  0  0
  -90.1989   31.2461   -0.9836 S   0  0  0  0  0  0  0  0  0  0  0  0
  -89.7748   31.3103   -2.6312 C   0  0  0  0  0  0  0  0  0  0  0  0
  -90.5622   31.1827   -3.7915 C   0  0  0  0  0  0  0  0  0  0  0  0
  -90.0005   31.3407   -5.0314 C   0  0  0  0  0  0  0  0  0  0  0  0
  -88.6789   31.6209   -5.0530 C   0  0  0  0  0  0  0  0  0  0  0  0
  -87.9203   31.7424   -3.9359 C   0  0  0  0  0  0  0  0  0  0  0  0
  -88.4241   31.5864   -2.6196 C   0  0  0  0  0  0  0  0  0  0  0  0
  -85.6163   30.2341    0.3803 C   0  0  0  0  0  0  0  0  0  0  0  0
  -85.4558   30.1345    1.7659 C   0  0  0  0  0  0  0  0  0  0  0  0
  -85.5587   28.9615    2.4562 C   0  0  0  0  0  0  0  0  0  0  0  0
  -85.8338   27.8007    1.7791 C   0  0  0  0  0  0  0  0  0  0  0  0
  -85.9469   26.5963    2.4288 F   0  0  0  0  0  0  0  0  0  0  0  0
  -85.9931   27.8940    0.4117 C   0  0  0  0  0  0  0  0  0  0  0  0
  -85.8921   29.0657   -0.2912 C   0  0  0  0  0  0  0  0  0  0  0  0
  1  2  1  0  0  0
  2  3  2  0  0  0
  3  4  1  0  0  0
  4  5  1  0  0  0
  4  6  2  0  0  0
  6 10  1  0  0  0
 10 11  2  0  0  0
 11 12  1  0  0  0
 12 13  1  0  0  0
 13 14  2  0  0  0
 14 15  1  0  0  0
 15 16  2  0  0  0
 16 17  1  0  0  0
 17 18  2  0  0  0
  6  7  1  0  0  0
  7 19  1  0  0  0
 19 20  2  0  0  0
 20 21  1  0  0  0
 21 22  2  0  0  0
 22 23  1  0  0  0
 22 24  1  0  0  0
 24 25  2  0  0  0
  7  2  1  0  0  0
 25 19  1  0  0  0
 18 10  1  0  0  0
 18 13  1  0  0  0
  5  8  1  0  0  0
  5  9  1  0  0  0
M  END
> <minimizedAffinity>
-7.28667

> <CNNscore>
0.7096493244

> <CNNaffinity>
6.6849136353

> <CNN_VS>
4.7439446449

> <CNNaffinity_variance>
0.1862069219

$$$$
[H]c1sc2c([H])c([H])c([H])c([H])c2c1-c1c(N([H])[H])nc(C([H])([H])[H])n1-c1c([H])c([H])c(F)c([H])c1[H]


 25 28  0  0  0  0  0  0  0  0999 V2000
  -83.5910   28.3261    2.7201 C   0  0  0  0  0  0  0  0  0  0  0  0
  -84.8799   27.9341    2.0567 C   0  0  0  0  0  0  0  0  0  0  0  0
  -85.5604   26.8230    2.1820 N   0  0  0  0  0  0  0  0  0  0  0  0
  -86.6777   26.8956    1.3959 C   0  0  0  0  0  0  0  0  0  0  0  0
  -87.6423   25.8462    1.5233 N   0  0  0  0  0  0  0  0  0  0  0  0
  -86.6816   28.0965    0.7573 C   0  0  0  0  0  0  0  0  0  0  0  0
  -85.5471   28.7553    1.1756 N   0  0  0  0  0  0  0  0  0  0  0  0
  -88.6622   26.0105    1.6643 H   0  0  0  0  0  0  0  0  0  0  0  0
  -87.3321   24.8515    1.4757 H   0  0  0  0  0  0  0  0  0  0  0  0
  -87.5199   28.5557   -0.4053 C   0  0  0  0  0  0  0  0  0  0  0  0
  -86.9183   28.6101   -1.6556 C   0  0  0  0  0  0  0  0  0  0  0  0
  -88.1600   28.9622   -2.7418 S   0  0  0  0  0  0  0  0  0  0  0  0
  -89.4550   29.0452   -1.6398 C   0  0  0  0  0  0  0  0  0  0  0  0
  -90.8306   29.2614   -1.8483 C   0  0  0  0  0  0  0  0  0  0  0  0
  -91.7067   29.2177   -0.7956 C   0  0  0  0  0  0  0  0  0  0  0  0
  -91.1669   28.9580    0.4156 C   0  0  0  0  0  0  0  0  0  0  0  0
  -89.8422   28.7512    0.6167 C   0  0  0  0  0  0  0  0  0  0  0  0
  -88.8723   28.7871   -0.4172 C   0  0  0  0  0  0  0  0  0  0  0  0
  -84.9546   30.0052    0.8386 C   0  0  0  0  0  0  0  0  0  0  0  0
  -83.6342   30.0708    0.3828 C   0  0  0  0  0  0  0  0  0  0  0  0
  -83.0284   31.2278   -0.0140 C   0  0  0  0  0  0  0  0  0  0  0  0
  -83.7295   32.4061    0.0260 C   0  0  0  0  0  0  0  0  0  0  0  0
  -83.1640   33.5955   -0.3625 F   0  0  0  0  0  0  0  0  0  0  0  0
  -85.0328   32.3463    0.4751 C   0  0  0  0  0  0  0  0  0  0  0  0
  -85.6508   31.1910    0.8756 C   0  0  0  0  0  0  0  0  0  0  0  0
  1  2  1  0  0  0
  2  3  2  0  0  0
  3  4  1  0  0  0
  4  5  1  0  0  0
  4  6  2  0  0  0
  6 10  1  0  0  0
 10 11  2  0  0  0
 11 12  1  0  0  0
 12 13  1  0  0  0
 13 14  2  0  0  0
 14 15  1  0  0  0
 15 16  2  0  0  0
 16 17  1  0  0  0
 17 18  2  0  0  0
  6  7  1  0  0  0
  7 19  1  0  0  0
 19 20  2  0  0  0
 20 21  1  0  0  0
 21 22  2  0  0  0
 22 23  1  0  0  0
 22 24  1  0  0  0
 24 25  2  0  0  0
  7  2  1  0  0  0
 25 19  1  0  0  0
 18 10  1  0  0  0
 18 13  1  0  0  0
  5  8  1  0  0  0
  5  9  1  0  0  0
M  END
> <minimizedAffinity>
-8.81983

> <CNNscore>
0.5185675025

> <CNNaffinity>
6.5429563522

> <CNN_VS>
3.3929646015

> <CNNaffinity_variance>
0.2276778221

$$$$
[H]c1sc2c([H])c([H])c([H])c([H])c2c1-c1c(N([H])[H])nc(C([H])([H])[H])n1-c1c([H])c([H])c(F)c([H])c1[H]


 25 28  0  0  0  0  0  0  0  0999 V2000
  -83.8946   28.3724    2.8882 C   0  0  0  0  0  0  0  0  0  0  0  0
  -85.0751   28.0003    2.0378 C   0  0  0  0  0  0  0  0  0  0  0  0
  -85.7939   26.9067    2.0682 N   0  0  0  0  0  0  0  0  0  0  0  0
  -86.7746   26.9935    1.1183 C   0  0  0  0  0  0  0  0  0  0  0  0
  -87.7727   25.9680    1.1061 N   0  0  0  0  0  0  0  0  0  0  0  0
  -86.6505   28.1850    0.4741 C   0  0  0  0  0  0  0  0  0  0  0  0
  -85.5782   28.8238    1.0557 N   0  0  0  0  0  0  0  0  0  0  0  0
  -88.7978   26.1574    1.0862 H   0  0  0  0  0  0  0  0  0  0  0  0
  -87.4834   24.9661    1.1174 H   0  0  0  0  0  0  0  0  0  0  0  0
  -87.2880   28.6465   -0.8087 C   0  0  0  0  0  0  0  0  0  0  0  0
  -87.2044   27.8072   -1.9117 C   0  0  0  0  0  0  0  0  0  0  0  0
  -88.1712   28.5179   -3.0973 S   0  0  0  0  0  0  0  0  0  0  0  0
  -88.6962   29.8812   -2.2231 C   0  0  0  0  0  0  0  0  0  0  0  0
  -89.5829   30.9169   -2.5752 C   0  0  0  0  0  0  0  0  0  0  0  0
  -89.9109   31.8878   -1.6657 C   0  0  0  0  0  0  0  0  0  0  0  0
  -89.3390   31.7768   -0.4465 C   0  0  0  0  0  0  0  0  0  0  0  0
  -88.4842   30.7805   -0.1078 C   0  0  0  0  0  0  0  0  0  0  0  0
  -88.0898   29.7448   -0.9925 C   0  0  0  0  0  0  0  0  0  0  0  0
  -84.9103   30.0551    0.8011 C   0  0  0  0  0  0  0  0  0  0  0  0
  -83.6408   30.0721    0.2151 C   0  0  0  0  0  0  0  0  0  0  0  0
  -82.9741   31.2178   -0.1106 C   0  0  0  0  0  0  0  0  0  0  0  0
  -83.5575   32.4337    0.1397 C   0  0  0  0  0  0  0  0  0  0  0  0
  -82.9270   33.6136   -0.1698 F   0  0  0  0  0  0  0  0  0  0  0  0
  -84.8102   32.4219    0.7179 C   0  0  0  0  0  0  0  0  0  0  0  0
  -85.4885   31.2784    1.0488 C   0  0  0  0  0  0  0  0  0  0  0  0
  1  2  1  0  0  0
  2  3  2  0  0  0
  3  4  1  0  0  0
  4  5  1  0  0  0
  4  6  2  0  0  0
  6 10  1  0  0  0
 10 11  2  0  0  0
 11 12  1  0  0  0
 12 13  1  0  0  0
 13 14  2  0  0  0
 14 15  1  0  0  0
 15 16  2  0  0  0
 16 17  1  0  0  0
 17 18  2  0  0  0
  6  7  1  0  0  0
  7 19  1  0  0  0
 19 20  2  0  0  0
 20 21  1  0  0  0
 21 22  2  0  0  0
 22 23  1  0  0  0
 22 24  1  0  0  0
 24 25  2  0  0  0
  7  2  1  0  0  0
 25 19  1  0  0  0
 18 10  1  0  0  0
 18 13  1  0  0  0
  5  8  1  0  0  0
  5  9  1  0  0  0
M  END
> <minimizedAffinity>
-8.07529

> <CNNscore>
0.4969667792

> <CNNaffinity>
6.6089181900

> <CNN_VS>
3.2844128609

> <CNNaffinity_variance>
0.1879607290

$$$$
[H]c1sc2c([H])c([H])c([H])c([H])c2c1-c1c(N([H])[H])nc(C([H])([H])[H])n1-c1c([H])c([H])c(F)c([H])c1[H]


 25 28  0  0  0  0  0  0  0  0999 V2000
  -83.6770   29.3184    1.6353 C   0  0  0  0  0  0  0  0  0  0  0  0
  -84.2940   30.4633    0.8847 C   0  0  0  0  0  0  0  0  0  0  0  0
  -83.8274   31.6736    0.7090 N   0  0  0  0  0  0  0  0  0  0  0  0
  -84.7183   32.3880   -0.0442 C   0  0  0  0  0  0  0  0  0  0  0  0
  -84.3123   33.6857   -0.4903 N   0  0  0  0  0  0  0  0  0  0  0  0
  -85.7777   31.5873   -0.3386 C   0  0  0  0  0  0  0  0  0  0  0  0
  -85.5100   30.3695    0.2457 N   0  0  0  0  0  0  0  0  0  0  0  0
  -84.3860   34.0079   -1.4792 H   0  0  0  0  0  0  0  0  0  0  0  0
  -83.9170   34.3664    0.1940 H   0  0  0  0  0  0  0  0  0  0  0  0
  -87.1273   31.9567   -0.8928 C   0  0  0  0  0  0  0  0  0  0  0  0
  -88.2502   31.4364   -0.2631 C   0  0  0  0  0  0  0  0  0  0  0  0
  -89.5706   32.1907   -0.9934 S   0  0  0  0  0  0  0  0  0  0  0  0
  -88.7301   33.1729   -2.1012 C   0  0  0  0  0  0  0  0  0  0  0  0
  -89.1966   34.1247   -3.0281 C   0  0  0  0  0  0  0  0  0  0  0  0
  -88.3114   34.8532   -3.7787 C   0  0  0  0  0  0  0  0  0  0  0  0
  -87.0017   34.5976   -3.5660 C   0  0  0  0  0  0  0  0  0  0  0  0
  -86.5525   33.6803   -2.6746 C   0  0  0  0  0  0  0  0  0  0  0  0
  -87.4028   32.8826   -1.8673 C   0  0  0  0  0  0  0  0  0  0  0  0
  -86.2359   29.1495    0.3538 C   0  0  0  0  0  0  0  0  0  0  0  0
  -86.5575   28.4054   -0.7856 C   0  0  0  0  0  0  0  0  0  0  0  0
  -87.1965   27.1999   -0.7454 C   0  0  0  0  0  0  0  0  0  0  0  0
  -87.5548   26.6648    0.4658 C   0  0  0  0  0  0  0  0  0  0  0  0
  -88.1990   25.4557    0.5580 F   0  0  0  0  0  0  0  0  0  0  0  0
  -87.2394   27.3955    1.5929 C   0  0  0  0  0  0  0  0  0  0  0  0
  -86.5985   28.6060    1.5644 C   0  0  0  0  0  0  0  0  0  0  0  0
  1  2  1  0  0  0
  2  3  2  0  0  0
  3  4  1  0  0  0
  4  5  1  0  0  0
  4  6  2  0  0  0
  6 10  1  0  0  0
 10 11  2  0  0  0
 11 12  1  0  0  0
 12 13  1  0  0  0
 13 14  2  0  0  0
 14 15  1  0  0  0
 15 16  2  0  0  0
 16 17  1  0  0  0
 17 18  2  0  0  0
  6  7  1  0  0  0
  7 19  1  0  0  0
 19 20  2  0  0  0
 20 21  1  0  0  0
 21 22  2  0  0  0
 22 23  1  0  0  0
 22 24  1  0  0  0
 24 25  2  0  0  0
  7  2  1  0  0  0
 25 19  1  0  0  0
 18 10  1  0  0  0
 18 13  1  0  0  0
  5  8  1  0  0  0
  5  9  1  0  0  0
M  END
> <minimizedAffinity>
-8.06688

> <CNNscore>
0.4356903434

> <CNNaffinity>
6.4280433655

> <CNN_VS>
2.8006365299

> <CNNaffinity_variance>
0.1647894382

$$$$
[H]c1sc2c([H])c([H])c([H])c([H])c2c1-c1c(N([H])[H])nc(C([H])([H])[H])n1-c1c([H])c([H])c(F)c([H])c1[H]


 25 28  0  0  0  0  0  0  0  0999 V2000
  -90.9166   25.4085    0.6718 C   0  0  0  0  0  0  0  0  0  0  0  0
  -89.6573   26.1184    0.2652 C   0  0  0  0  0  0  0  0  0  0  0  0
  -89.1231   26.2208   -0.9255 N   0  0  0  0  0  0  0  0  0  0  0  0
  -87.9769   26.9622   -0.8355 C   0  0  0  0  0  0  0  0  0  0  0  0
  -87.3337   27.3320   -2.0592 N   0  0  0  0  0  0  0  0  0  0  0  0
  -87.7957   27.3252    0.4627 C   0  0  0  0  0  0  0  0  0  0  0  0
  -88.8583   26.7947    1.1595 N   0  0  0  0  0  0  0  0  0  0  0  0
  -87.0375   28.3054   -2.2870 H   0  0  0  0  0  0  0  0  0  0  0  0
  -87.1391   26.6042   -2.7804 H   0  0  0  0  0  0  0  0  0  0  0  0
  -86.5750   27.8977    1.1314 C   0  0  0  0  0  0  0  0  0  0  0  0
  -85.7675   27.0312    1.8562 C   0  0  0  0  0  0  0  0  0  0  0  0
  -84.4121   27.9344    2.2955 S   0  0  0  0  0  0  0  0  0  0  0  0
  -84.8402   29.4154    1.5732 C   0  0  0  0  0  0  0  0  0  0  0  0
  -84.1447   30.6371    1.4932 C   0  0  0  0  0  0  0  0  0  0  0  0
  -84.6699   31.6890    0.7894 C   0  0  0  0  0  0  0  0  0  0  0  0
  -85.8644   31.4696    0.1971 C   0  0  0  0  0  0  0  0  0  0  0  0
  -86.5348   30.2938    0.2752 C   0  0  0  0  0  0  0  0  0  0  0  0
  -86.0629   29.1627    0.9886 C   0  0  0  0  0  0  0  0  0  0  0  0
  -89.2159   26.7673    2.5373 C   0  0  0  0  0  0  0  0  0  0  0  0
  -88.9784   25.6299    3.3153 C   0  0  0  0  0  0  0  0  0  0  0  0
  -89.2410   25.5610    4.6530 C   0  0  0  0  0  0  0  0  0  0  0  0
  -89.7672   26.6525    5.2957 C   0  0  0  0  0  0  0  0  0  0  0  0
  -90.0483   26.6322    6.6395 F   0  0  0  0  0  0  0  0  0  0  0  0
  -90.0032   27.7773    4.5321 C   0  0  0  0  0  0  0  0  0  0  0  0
  -89.7435   27.8577    3.1893 C   0  0  0  0  0  0  0  0  0  0  0  0
  1  2  1  0  0  0
  2  3  2  0  0  0
  3  4  1  0  0  0
  4  5  1  0  0  0
  4  6  2  0  0  0
  6 10  1  0  0  0
 10 11  2  0  0  0
 11 12  1  0  0  0
 12 13  1  0  0  0
 13 14  2  0  0  0
 14 15  1  0  0  0
 15 16  2  0  0  0
 16 17  1  0  0  0
 17 18  2  0  0  0
  6  7  1  0  0  0
  7 19  1  0  0  0
 19 20  2  0  0  0
 20 21  1  0  0  0
 21 22  2  0  0  0
 22 23  1  0  0  0
 22 24  1  0  0  0
 24 25  2  0  0  0
  7  2  1  0  0  0
 25 19  1  0  0  0
 18 10  1  0  0  0
 18 13  1  0  0  0
  5  8  1  0  0  0
  5  9  1  0  0  0
M  END
> <minimizedAffinity>
-8.70135

> <CNNscore>
0.3219844699

> <CNNaffinity>
6.1459345818

> <CNN_VS>
1.9788955450

> <CNNaffinity_variance>
0.3249108195

$$$$
[H]c1sc2c([H])c([H])c([H])c([H])c2c1-c1c(N([H])[H])nc(C([H])([H])[H])n1-c1c([H])c([H])c(F)c([H])c1[H]


 25 28  0  0  0  0  0  0  0  0999 V2000
  -85.5988   29.2229    1.7403 C   0  0  0  0  0  0  0  0  0  0  0  0
  -85.4663   30.4237    0.8483 C   0  0  0  0  0  0  0  0  0  0  0  0
  -84.5226   31.3307    0.8311 N   0  0  0  0  0  0  0  0  0  0  0  0
  -84.8018   32.2432   -0.1492 C   0  0  0  0  0  0  0  0  0  0  0  0
  -83.8005   33.2229   -0.4419 N   0  0  0  0  0  0  0  0  0  0  0  0
  -85.9663   31.8868   -0.7549 C   0  0  0  0  0  0  0  0  0  0  0  0
  -86.3864   30.7355   -0.1273 N   0  0  0  0  0  0  0  0  0  0  0  0
  -83.4597   33.4335   -1.4045 H   0  0  0  0  0  0  0  0  0  0  0  0
  -83.3717   33.7708    0.3351 H   0  0  0  0  0  0  0  0  0  0  0  0
  -86.8398   32.6837   -1.6861 C   0  0  0  0  0  0  0  0  0  0  0  0
  -86.8982   34.0586   -1.5008 C   0  0  0  0  0  0  0  0  0  0  0  0
  -87.7854   34.6551   -2.8057 S   0  0  0  0  0  0  0  0  0  0  0  0
  -88.0954   33.1841   -3.6047 C   0  0  0  0  0  0  0  0  0  0  0  0
  -88.7600   32.9154   -4.8166 C   0  0  0  0  0  0  0  0  0  0  0  0
  -88.8282   31.6354   -5.3009 C   0  0  0  0  0  0  0  0  0  0  0  0
  -88.2272   30.6846   -4.5523 C   0  0  0  0  0  0  0  0  0  0  0  0
  -87.5884   30.9429   -3.3847 C   0  0  0  0  0  0  0  0  0  0  0  0
  -87.4807   32.2367   -2.8140 C   0  0  0  0  0  0  0  0  0  0  0  0
  -87.5412   29.9122   -0.2523 C   0  0  0  0  0  0  0  0  0  0  0  0
  -88.8035   30.3908    0.1122 C   0  0  0  0  0  0  0  0  0  0  0  0
  -89.9559   29.6753   -0.0401 C   0  0  0  0  0  0  0  0  0  0  0  0
  -89.9027   28.4145   -0.5777 C   0  0  0  0  0  0  0  0  0  0  0  0
  -91.0340   27.6559   -0.7509 F   0  0  0  0  0  0  0  0  0  0  0  0
  -88.6592   27.9380   -0.9390 C   0  0  0  0  0  0  0  0  0  0  0  0
  -87.4964   28.6471   -0.7907 C   0  0  0  0  0  0  0  0  0  0  0  0
  1  2  1  0  0  0
  2  3  2  0  0  0
  3  4  1  0  0  0
  4  5  1  0  0  0
  4  6  2  0  0  0
  6 10  1  0  0  0
 10 11  2  0  0  0
 11 12  1  0  0  0
 12 13  1  0  0  0
 13 14  2  0  0  0
 14 15  1  0  0  0
 15 16  2  0  0  0
 16 17  1  0  0  0
 17 18  2  0  0  0
  6  7  1  0  0  0
  7 19  1  0  0  0
 19 20  2  0  0  0
 20 21  1  0  0  0
 21 22  2  0  0  0
 22 23  1  0  0  0
 22 24  1  0  0  0
 24 25  2  0  0  0
  7  2  1  0  0  0
 25 19  1  0  0  0
 18 10  1  0  0  0
 18 13  1  0  0  0
  5  8  1  0  0  0
  5  9  1  0  0  0
M  END
> <minimizedAffinity>
-6.77323

> <CNNscore>
0.3118025661

> <CNNaffinity>
6.3026871681

> <CNN_VS>
1.9651939869

> <CNNaffinity_variance>
0.4447793961

$$$$
[H]c1sc2c([H])c([H])c([H])c([H])c2c1-c1c(N([H])[H])nc(C([H])([H])[H])n1-c1c([H])c([H])c(F)c([H])c1[H]


 25 28  0  0  0  0  0  0  0  0999 V2000
  -83.8828   27.4665    2.4942 C   0  0  0  0  0  0  0  0  0  0  0  0
  -85.3351   27.3247    2.1395 C   0  0  0  0  0  0  0  0  0  0  0  0
  -86.1171   26.2857    2.2900 N   0  0  0  0  0  0  0  0  0  0  0  0
  -87.3677   26.6015    1.8343 C   0  0  0  0  0  0  0  0  0  0  0  0
  -88.4132   25.6526    2.0678 N   0  0  0  0  0  0  0  0  0  0  0  0
  -87.3530   27.8835    1.3800 C   0  0  0  0  0  0  0  0  0  0  0  0
  -86.0696   28.3430    1.5745 N   0  0  0  0  0  0  0  0  0  0  0  0
  -89.3358   25.8984    2.4866 H   0  0  0  0  0  0  0  0  0  0  0  0
  -88.2681   24.6518    1.8129 H   0  0  0  0  0  0  0  0  0  0  0  0
  -88.3705   28.6102    0.5423 C   0  0  0  0  0  0  0  0  0  0  0  0
  -89.4301   29.2231    1.1979 C   0  0  0  0  0  0  0  0  0  0  0  0
  -90.2535   30.0960    0.0122 S   0  0  0  0  0  0  0  0  0  0  0  0
  -89.2768   29.7040   -1.3260 C   0  0  0  0  0  0  0  0  0  0  0  0
  -89.3410   30.1233   -2.6686 C   0  0  0  0  0  0  0  0  0  0  0  0
  -88.3883   29.7202   -3.5672 C   0  0  0  0  0  0  0  0  0  0  0  0
  -87.4152   28.9187   -3.0811 C   0  0  0  0  0  0  0  0  0  0  0  0
  -87.3539   28.5137   -1.7887 C   0  0  0  0  0  0  0  0  0  0  0  0
  -88.3034   28.8805   -0.8013 C   0  0  0  0  0  0  0  0  0  0  0  0
  -85.4030   29.5616    1.2620 C   0  0  0  0  0  0  0  0  0  0  0  0
  -85.2531   30.5625    2.2269 C   0  0  0  0  0  0  0  0  0  0  0  0
  -84.5726   31.7256    2.0098 C   0  0  0  0  0  0  0  0  0  0  0  0
  -83.9937   31.9519    0.7870 C   0  0  0  0  0  0  0  0  0  0  0  0
  -83.2992   33.1060    0.5203 F   0  0  0  0  0  0  0  0  0  0  0  0
  -84.1390   30.9671   -0.1684 C   0  0  0  0  0  0  0  0  0  0  0  0
  -84.8196   29.7962    0.0385 C   0  0  0  0  0  0  0  0  0  0  0  0
  1  2  1  0  0  0
  2  3  2  0  0  0
  3  4  1  0  0  0
  4  5  1  0  0  0
  4  6  2  0  0  0
  6 10  1  0  0  0
 10 11  2  0  0  0
 11 12  1  0  0  0
 12 13  1  0  0  0
 13 14  2  0  0  0
 14 15  1  0  0  0
 15 16  2  0  0  0
 16 17  1  0  0  0
 17 18  2  0  0  0
  6  7  1  0  0  0
  7 19  1  0  0  0
 19 20  2  0  0  0
 20 21  1  0  0  0
 21 22  2  0  0  0
 22 23  1  0  0  0
 22 24  1  0  0  0
 24 25  2  0  0  0
  7  2  1  0  0  0
 25 19  1  0  0  0
 18 10  1  0  0  0
 18 13  1  0  0  0
  5  8  1  0  0  0
  5  9  1  0  0  0
M  END
> <minimizedAffinity>
-7.05099

> <CNNscore>
0.2127096504

> <CNNaffinity>
6.0514030457

> <CNN_VS>
1.2871918678

> <CNNaffinity_variance>
0.2311888635

$$$$
[H]c1sc2c([H])c([H])c([H])c([H])c2c1-c1c(N([H])[H])nc(C([H])([H])[H])n1-c1c([H])c([H])c(F)c([H])c1[H]


 25 28  0  0  0  0  0  0  0  0999 V2000
  -83.5455   27.7874    2.6080 C   0  0  0  0  0  0  0  0  0  0  0  0
  -84.9737   27.5930    2.1870 C   0  0  0  0  0  0  0  0  0  0  0  0
  -85.7486   26.5547    2.3744 N   0  0  0  0  0  0  0  0  0  0  0  0
  -86.9761   26.8125    1.8284 C   0  0  0  0  0  0  0  0  0  0  0  0
  -88.0199   25.8656    2.0772 N   0  0  0  0  0  0  0  0  0  0  0  0
  -86.9538   28.0562    1.2782 C   0  0  0  0  0  0  0  0  0  0  0  0
  -85.6895   28.5520    1.5061 N   0  0  0  0  0  0  0  0  0  0  0  0
  -88.9677   26.1260    2.4251 H   0  0  0  0  0  0  0  0  0  0  0  0
  -87.8473   24.8510    1.9085 H   0  0  0  0  0  0  0  0  0  0  0  0
  -87.9330   28.6986    0.3329 C   0  0  0  0  0  0  0  0  0  0  0  0
  -87.9828   30.0858    0.2964 C   0  0  0  0  0  0  0  0  0  0  0  0
  -89.0156   30.4695   -0.9810 S   0  0  0  0  0  0  0  0  0  0  0  0
  -89.3996   28.8907   -1.4893 C   0  0  0  0  0  0  0  0  0  0  0  0
  -90.1931   28.4340   -2.5591 C   0  0  0  0  0  0  0  0  0  0  0  0
  -90.3034   27.0928   -2.8171 C   0  0  0  0  0  0  0  0  0  0  0  0
  -89.6140   26.2714   -1.9951 C   0  0  0  0  0  0  0  0  0  0  0  0
  -88.8511   26.7109   -0.9642 C   0  0  0  0  0  0  0  0  0  0  0  0
  -88.6919   28.0794   -0.6281 C   0  0  0  0  0  0  0  0  0  0  0  0
  -85.0233   29.7549    1.1372 C   0  0  0  0  0  0  0  0  0  0  0  0
  -84.9120   30.8166    2.0405 C   0  0  0  0  0  0  0  0  0  0  0  0
  -84.2344   31.9704    1.7708 C   0  0  0  0  0  0  0  0  0  0  0  0
  -83.6192   32.1244    0.5546 C   0  0  0  0  0  0  0  0  0  0  0  0
  -82.9259   33.2662    0.2364 F   0  0  0  0  0  0  0  0  0  0  0  0
  -83.7263   31.0795   -0.3401 C   0  0  0  0  0  0  0  0  0  0  0  0
  -84.4036   29.9172   -0.0801 C   0  0  0  0  0  0  0  0  0  0  0  0
  1  2  1  0  0  0
  2  3  2  0  0  0
  3  4  1  0  0  0
  4  5  1  0  0  0
  4  6  2  0  0  0
  6 10  1  0  0  0
 10 11  2  0  0  0
 11 12  1  0  0  0
 12 13  1  0  0  0
 13 14  2  0  0  0
 14 15  1  0  0  0
 15 16  2  0  0  0
 16 17  1  0  0  0
 17 18  2  0  0  0
  6  7  1  0  0  0
  7 19  1  0  0  0
 19 20  2  0  0  0
 20 21  1  0  0  0
 21 22  2  0  0  0
 22 23  1  0  0  0
 22 24  1  0  0  0
 24 25  2  0  0  0
  7  2  1  0  0  0
 25 19  1  0  0  0
 18 10  1  0  0  0
 18 13  1  0  0  0
  5  8  1  0  0  0
  5  9  1  0  0  0
M  END
> <minimizedAffinity>
-7.72548

> <CNNscore>
0.1773833781

> <CNNaffinity>
6.0413103104

> <CNN_VS>
1.0716279745

> <CNNaffinity_variance>
0.3183084428

$$$$
[H]c1c([H])c([H])c(N([H])S(=O)(=O)c2c([H])c([H])c(C(=O)C([H])([H])n3c(C([H])([H])C([H])([H])C([H])([H])C([H])([H])[H])nc4c([H])c([H])c([H])c([H])c43)c([H])c2[H])c([H])c1[H]


 33 36  0  0  0  0  0  0  0  0999 V2000
  -88.2962   30.1566   -1.9865 C   0  0  0  0  0  0  0  0  0  0  0  0
  -88.0936   30.4031   -3.3592 C   0  0  0  0  0  0  0  0  0  0  0  0
  -88.2216   31.6447   -3.9268 C   0  0  0  0  0  0  0  0  0  0  0  0
  -88.5589   32.7224   -3.1672 C   0  0  0  0  0  0  0  0  0  0  0  0
  -88.7654   32.5429   -1.8349 C   0  0  0  0  0  0  0  0  0  0  0  0
  -88.6315   31.2791   -1.2746 C   0  0  0  0  0  0  0  0  0  0  0  0
  -88.7253   34.2871   -3.8976 S   0  0  0  0  0  0  0  0  0  0  0  0
  -88.6814   34.2037   -5.4049 O   0  0  0  0  0  0  0  0  0  0  0  0
  -90.0691   34.8802   -3.5369 O   0  0  0  0  0  0  0  0  0  0  0  0
  -87.4313   35.3083   -3.3776 N   0  0  0  0  0  0  0  0  0  0  0  0
  -86.7041   34.9300   -2.7468 H   0  0  0  0  0  0  0  0  0  0  0  0
  -87.3811   36.6655   -3.8254 C   0  0  0  0  0  0  0  0  0  0  0  0
  -88.0189   37.6764   -3.1332 C   0  0  0  0  0  0  0  0  0  0  0  0
  -87.9625   38.9754   -3.5805 C   0  0  0  0  0  0  0  0  0  0  0  0
  -87.2722   39.2846   -4.7212 C   0  0  0  0  0  0  0  0  0  0  0  0
  -86.6315   38.2913   -5.4233 C   0  0  0  0  0  0  0  0  0  0  0  0
  -86.6975   36.9998   -4.9631 C   0  0  0  0  0  0  0  0  0  0  0  0
  -88.1553   28.8228   -1.4697 C   0  0  0  0  0  0  0  0  0  0  0  0
  -89.2403   28.0952   -1.6305 O   0  0  0  0  0  0  0  0  0  0  0  0
  -87.0663   28.1290   -0.8116 C   0  0  0  0  0  0  0  0  0  0  0  0
  -86.8865   27.7977    1.6257 C   0  0  0  0  0  0  0  0  0  0  0  0
  -86.2379   28.4479    2.6091 N   0  0  0  0  0  0  0  0  0  0  0  0
  -85.6145   29.5196    2.1646 C   0  0  0  0  0  0  0  0  0  0  0  0
  -84.8018   30.4996    2.7441 C   0  0  0  0  0  0  0  0  0  0  0  0
  -84.2541   31.5085    1.9980 C   0  0  0  0  0  0  0  0  0  0  0  0
  -84.4890   31.5907    0.6440 C   0  0  0  0  0  0  0  0  0  0  0  0
  -85.2885   30.6249    0.0873 C   0  0  0  0  0  0  0  0  0  0  0  0
  -85.8618   29.5868    0.8116 C   0  0  0  0  0  0  0  0  0  0  0  0
  -86.6510   28.5126    0.4978 N   0  0  0  0  0  0  0  0  0  0  0  0
  -87.6726   26.5503    1.8337 C   0  0  0  0  0  0  0  0  0  0  0  0
  -88.9250   26.7564    2.6289 C   0  0  0  0  0  0  0  0  0  0  0  0
  -90.8881   28.1957    3.0760 C   0  0  0  0  0  0  0  0  0  0  0  0
  -89.8578   27.7809    2.0516 C   0  0  0  0  0  0  0  0  0  0  0  0
 32 33  1  0  0  0
 33 31  1  0  0  0
 31 30  1  0  0  0
 30 21  1  0  0  0
 21 22  2  0  0  0
 22 23  1  0  0  0
 23 24  2  0  0  0
 24 25  1  0  0  0
 25 26  2  0  0  0
 26 27  1  0  0  0
 27 28  2  0  0  0
 28 29  1  0  0  0
 29 20  1  0  0  0
 20 18  1  0  0  0
 18 19  2  0  0  0
 18  1  1  0  0  0
  1  2  2  0  0  0
  2  3  1  0  0  0
  3  4  2  0  0  0
  4  5  1  0  0  0
  5  6  2  0  0  0
  4  7  1  0  0  0
  7  8  2  0  0  0
  7  9  2  0  0  0
  7 10  1  0  0  0
 10 12  1  0  0  0
 12 13  2  0  0  0
 13 14  1  0  0  0
 14 15  2  0  0  0
 15 16  1  0  0  0
 16 17  2  0  0  0
 29 21  1  0  0  0
  6  1  1  0  0  0
 17 12  1  0  0  0
 28 23  1  0  0  0
 10 11  1  0  0  0
M  END
> <minimizedAffinity>
-7.65055

> <CNNscore>
0.4183021188

> <CNNaffinity>
6.9236421585

> <CNN_VS>
2.8961741924

> <CNNaffinity_variance>
0.0836267695

$$$$
[H]c1c([H])c([H])c(N([H])S(=O)(=O)c2c([H])c([H])c(C(=O)C([H])([H])n3c(C([H])([H])C([H])([H])C([H])([H])C([H])([H])[H])nc4c([H])c([H])c([H])c([H])c43)c([H])c2[H])c([H])c1[H]


 33 36  0  0  0  0  0  0  0  0999 V2000
  -85.8877   28.9509    0.6026 C   0  0  0  0  0  0  0  0  0  0  0  0
  -86.8834   29.6927   -0.0642 C   0  0  0  0  0  0  0  0  0  0  0  0
  -86.6869   30.9686   -0.5265 C   0  0  0  0  0  0  0  0  0  0  0  0
  -85.4883   31.5903   -0.3567 C   0  0  0  0  0  0  0  0  0  0  0  0
  -84.4900   30.9206    0.2795 C   0  0  0  0  0  0  0  0  0  0  0  0
  -84.7043   29.6284    0.7418 C   0  0  0  0  0  0  0  0  0  0  0  0
  -85.2537   33.2074   -0.9393 S   0  0  0  0  0  0  0  0  0  0  0  0
  -86.0543   34.2073   -0.1393 O   0  0  0  0  0  0  0  0  0  0  0  0
  -83.8005   33.5995   -0.7903 O   0  0  0  0  0  0  0  0  0  0  0  0
  -85.7623   33.3073   -2.5882 N   0  0  0  0  0  0  0  0  0  0  0  0
  -85.1369   32.9644   -3.3372 H   0  0  0  0  0  0  0  0  0  0  0  0
  -87.0427   33.8636   -2.8983 C   0  0  0  0  0  0  0  0  0  0  0  0
  -88.1938   33.1030   -2.8320 C   0  0  0  0  0  0  0  0  0  0  0  0
  -89.4161   33.6540   -3.1370 C   0  0  0  0  0  0  0  0  0  0  0  0
  -89.5085   34.9670   -3.5120 C   0  0  0  0  0  0  0  0  0  0  0  0
  -88.3733   35.7393   -3.5837 C   0  0  0  0  0  0  0  0  0  0  0  0
  -87.1610   35.1740   -3.2758 C   0  0  0  0  0  0  0  0  0  0  0  0
  -86.1761   27.6222    1.0689 C   0  0  0  0  0  0  0  0  0  0  0  0
  -85.5820   27.3406    2.2092 O   0  0  0  0  0  0  0  0  0  0  0  0
  -86.9818   26.5420    0.5356 C   0  0  0  0  0  0  0  0  0  0  0  0
  -89.1404   26.5234    1.7283 C   0  0  0  0  0  0  0  0  0  0  0  0
  -90.4143   26.7392    1.3528 N   0  0  0  0  0  0  0  0  0  0  0  0
  -90.5176   26.9512    0.0570 C   0  0  0  0  0  0  0  0  0  0  0  0
  -91.5731   27.2411   -0.8141 C   0  0  0  0  0  0  0  0  0  0  0  0
  -91.3619   27.4467   -2.1511 C   0  0  0  0  0  0  0  0  0  0  0  0
  -90.0947   27.3730   -2.6837 C   0  0  0  0  0  0  0  0  0  0  0  0
  -89.0679   27.0869   -1.8201 C   0  0  0  0  0  0  0  0  0  0  0  0
  -89.2431   26.8720   -0.4584 C   0  0  0  0  0  0  0  0  0  0  0  0
  -88.4054   26.6061    0.5917 N   0  0  0  0  0  0  0  0  0  0  0  0
  -88.7227   26.2607    3.1332 C   0  0  0  0  0  0  0  0  0  0  0  0
  -89.6963   25.4208    3.9011 C   0  0  0  0  0  0  0  0  0  0  0  0
  -90.0581   27.4591    5.2575 C   0  0  0  0  0  0  0  0  0  0  0  0
  -90.0184   25.9487    5.2688 C   0  0  0  0  0  0  0  0  0  0  0  0
 32 33  1  0  0  0
 33 31  1  0  0  0
 31 30  1  0  0  0
 30 21  1  0  0  0
 21 22  2  0  0  0
 22 23  1  0  0  0
 23 24  2  0  0  0
 24 25  1  0  0  0
 25 26  2  0  0  0
 26 27  1  0  0  0
 27 28  2  0  0  0
 28 29  1  0  0  0
 29 20  1  0  0  0
 20 18  1  0  0  0
 18 19  2  0  0  0
 18  1  1  0  0  0
  1  2  2  0  0  0
  2  3  1  0  0  0
  3  4  2  0  0  0
  4  5  1  0  0  0
  5  6  2  0  0  0
  4  7  1  0  0  0
  7  8  2  0  0  0
  7  9  2  0  0  0
  7 10  1  0  0  0
 10 12  1  0  0  0
 12 13  2  0  0  0
 13 14  1  0  0  0
 14 15  2  0  0  0
 15 16  1  0  0  0
 16 17  2  0  0  0
 29 21  1  0  0  0
  6  1  1  0  0  0
 17 12  1  0  0  0
 28 23  1  0  0  0
 10 11  1  0  0  0
M  END
> <minimizedAffinity>
-8.04344

> <CNNscore>
0.3443631232

> <CNNaffinity>
6.8519134521

> <CNN_VS>
2.3595464230

> <CNNaffinity_variance>
0.1395663619

$$$$
[H]c1c([H])c([H])c(N([H])S(=O)(=O)c2c([H])c([H])c(C(=O)C([H])([H])n3c(C([H])([H])C([H])([H])C([H])([H])C([H])([H])[H])nc4c([H])c([H])c([H])c([H])c43)c([H])c2[H])c([H])c1[H]


 33 36  0  0  0  0  0  0  0  0999 V2000
  -86.7587   29.1991    0.0899 C   0  0  0  0  0  0  0  0  0  0  0  0
  -87.4992   29.9756   -0.8239 C   0  0  0  0  0  0  0  0  0  0  0  0
  -87.1181   31.2299   -1.2258 C   0  0  0  0  0  0  0  0  0  0  0  0
  -85.9763   31.7942   -0.7463 C   0  0  0  0  0  0  0  0  0  0  0  0
  -85.2213   31.0889    0.1382 C   0  0  0  0  0  0  0  0  0  0  0  0
  -85.6204   29.8192    0.5355 C   0  0  0  0  0  0  0  0  0  0  0  0
  -85.5081   33.3849   -1.2563 S   0  0  0  0  0  0  0  0  0  0  0  0
  -86.1513   34.4529   -0.4041 O   0  0  0  0  0  0  0  0  0  0  0  0
  -84.0127   33.5523   -1.1026 O   0  0  0  0  0  0  0  0  0  0  0  0
  -86.0002   33.6350   -2.8942 N   0  0  0  0  0  0  0  0  0  0  0  0
  -85.4253   33.2525   -3.6643 H   0  0  0  0  0  0  0  0  0  0  0  0
  -87.1971   34.3688   -3.1662 C   0  0  0  0  0  0  0  0  0  0  0  0
  -88.4440   33.7922   -3.0219 C   0  0  0  0  0  0  0  0  0  0  0  0
  -89.5841   34.5121   -3.2912 C   0  0  0  0  0  0  0  0  0  0  0  0
  -89.4982   35.8131   -3.7077 C   0  0  0  0  0  0  0  0  0  0  0  0
  -88.2656   36.4033   -3.8572 C   0  0  0  0  0  0  0  0  0  0  0  0
  -87.1374   35.6709   -3.5840 C   0  0  0  0  0  0  0  0  0  0  0  0
  -87.2322   27.8966    0.4715 C   0  0  0  0  0  0  0  0  0  0  0  0
  -86.2797   27.1287    0.9569 O   0  0  0  0  0  0  0  0  0  0  0  0
  -88.5373   27.2681    0.4256 C   0  0  0  0  0  0  0  0  0  0  0  0
  -90.5189   28.3353    1.4339 C   0  0  0  0  0  0  0  0  0  0  0  0
  -91.2061   28.1359    2.5734 N   0  0  0  0  0  0  0  0  0  0  0  0
  -90.6568   27.2035    3.3242 C   0  0  0  0  0  0  0  0  0  0  0  0
  -90.9723   26.6134    4.5526 C   0  0  0  0  0  0  0  0  0  0  0  0
  -90.2040   25.6126    5.0844 C   0  0  0  0  0  0  0  0  0  0  0  0
  -89.0880   25.1536    4.4218 C   0  0  0  0  0  0  0  0  0  0  0  0
  -88.7880   25.7408    3.2189 C   0  0  0  0  0  0  0  0  0  0  0  0
  -89.5431   26.7580    2.6479 C   0  0  0  0  0  0  0  0  0  0  0  0
  -89.4750   27.4711    1.4809 N   0  0  0  0  0  0  0  0  0  0  0  0
  -90.9093   29.3247    0.3919 C   0  0  0  0  0  0  0  0  0  0  0  0
  -91.6593   28.7222   -0.7560 C   0  0  0  0  0  0  0  0  0  0  0  0
  -90.8517   30.4784   -2.3016 C   0  0  0  0  0  0  0  0  0  0  0  0
  -92.0573   29.7083   -1.8154 C   0  0  0  0  0  0  0  0  0  0  0  0
 32 33  1  0  0  0
 33 31  1  0  0  0
 31 30  1  0  0  0
 30 21  1  0  0  0
 21 22  2  0  0  0
 22 23  1  0  0  0
 23 24  2  0  0  0
 24 25  1  0  0  0
 25 26  2  0  0  0
 26 27  1  0  0  0
 27 28  2  0  0  0
 28 29  1  0  0  0
 29 20  1  0  0  0
 20 18  1  0  0  0
 18 19  2  0  0  0
 18  1  1  0  0  0
  1  2  2  0  0  0
  2  3  1  0  0  0
  3  4  2  0  0  0
  4  5  1  0  0  0
  5  6  2  0  0  0
  4  7  1  0  0  0
  7  8  2  0  0  0
  7  9  2  0  0  0
  7 10  1  0  0  0
 10 12  1  0  0  0
 12 13  2  0  0  0
 13 14  1  0  0  0
 14 15  2  0  0  0
 15 16  1  0  0  0
 16 17  2  0  0  0
 29 21  1  0  0  0
  6  1  1  0  0  0
 17 12  1  0  0  0
 28 23  1  0  0  0
 10 11  1  0  0  0
M  END
> <minimizedAffinity>
-7.71638

> <CNNscore>
0.3438758254

> <CNNaffinity>
6.6010427475

> <CNN_VS>
2.2699389458

> <CNNaffinity_variance>
0.2191404104

$$$$
[H]c1c([H])c([H])c(N([H])S(=O)(=O)c2c([H])c([H])c(C(=O)C([H])([H])n3c(C([H])([H])C([H])([H])C([H])([H])C([H])([H])[H])nc4c([H])c([H])c([H])c([H])c43)c([H])c2[H])c([H])c1[H]


 33 36  0  0  0  0  0  0  0  0999 V2000
  -88.2850   28.2052    0.7340 C   0  0  0  0  0  0  0  0  0  0  0  0
  -89.6150   28.1341    1.1947 C   0  0  0  0  0  0  0  0  0  0  0  0
  -90.0667   27.1519    2.0382 C   0  0  0  0  0  0  0  0  0  0  0  0
  -89.2262   26.1766    2.4790 C   0  0  0  0  0  0  0  0  0  0  0  0
  -87.9302   26.1965    2.0670 C   0  0  0  0  0  0  0  0  0  0  0  0
  -87.4875   27.1984    1.2128 C   0  0  0  0  0  0  0  0  0  0  0  0
  -89.8107   24.9348    3.5400 S   0  0  0  0  0  0  0  0  0  0  0  0
  -88.7995   24.5972    4.6097 O   0  0  0  0  0  0  0  0  0  0  0  0
  -91.0527   25.4162    4.2565 O   0  0  0  0  0  0  0  0  0  0  0  0
  -90.1303   23.5003    2.6302 N   0  0  0  0  0  0  0  0  0  0  0  0
  -89.9675   22.5747    3.0621 H   0  0  0  0  0  0  0  0  0  0  0  0
  -90.6161   23.6096    1.2896 C   0  0  0  0  0  0  0  0  0  0  0  0
  -91.9158   23.9943    1.0236 C   0  0  0  0  0  0  0  0  0  0  0  0
  -92.3665   24.0907   -0.2719 C   0  0  0  0  0  0  0  0  0  0  0  0
  -91.5311   23.8054   -1.3178 C   0  0  0  0  0  0  0  0  0  0  0  0
  -90.2343   23.4207   -1.0719 C   0  0  0  0  0  0  0  0  0  0  0  0
  -89.8001   23.3296    0.2270 C   0  0  0  0  0  0  0  0  0  0  0  0
  -87.8920   29.2600   -0.1599 C   0  0  0  0  0  0  0  0  0  0  0  0
  -87.5351   28.8173   -1.3470 O   0  0  0  0  0  0  0  0  0  0  0  0
  -87.8101   30.6994   -0.0127 C   0  0  0  0  0  0  0  0  0  0  0  0
  -86.4344   32.5290   -0.9308 C   0  0  0  0  0  0  0  0  0  0  0  0
  -85.1438   32.8837   -0.7932 N   0  0  0  0  0  0  0  0  0  0  0  0
  -84.4738   32.0286   -0.0482 C   0  0  0  0  0  0  0  0  0  0  0  0
  -83.1558   31.9432    0.4124 C   0  0  0  0  0  0  0  0  0  0  0  0
  -82.7461   30.9196    1.2241 C   0  0  0  0  0  0  0  0  0  0  0  0
  -83.6253   29.9346    1.6141 C   0  0  0  0  0  0  0  0  0  0  0  0
  -84.9146   30.0284    1.1551 C   0  0  0  0  0  0  0  0  0  0  0  0
  -85.3670   31.0513    0.3305 C   0  0  0  0  0  0  0  0  0  0  0  0
  -86.5744   31.3789   -0.2262 N   0  0  0  0  0  0  0  0  0  0  0  0
  -87.4306   33.3104   -1.7146 C   0  0  0  0  0  0  0  0  0  0  0  0
  -86.8238   34.1148   -2.8227 C   0  0  0  0  0  0  0  0  0  0  0  0
  -89.0824   34.9997   -3.3137 C   0  0  0  0  0  0  0  0  0  0  0  0
  -87.6133   35.3342   -3.2004 C   0  0  0  0  0  0  0  0  0  0  0  0
 32 33  1  0  0  0
 33 31  1  0  0  0
 31 30  1  0  0  0
 30 21  1  0  0  0
 21 22  2  0  0  0
 22 23  1  0  0  0
 23 24  2  0  0  0
 24 25  1  0  0  0
 25 26  2  0  0  0
 26 27  1  0  0  0
 27 28  2  0  0  0
 28 29  1  0  0  0
 29 20  1  0  0  0
 20 18  1  0  0  0
 18 19  2  0  0  0
 18  1  1  0  0  0
  1  2  2  0  0  0
  2  3  1  0  0  0
  3  4  2  0  0  0
  4  5  1  0  0  0
  5  6  2  0  0  0
  4  7  1  0  0  0
  7  8  2  0  0  0
  7  9  2  0  0  0
  7 10  1  0  0  0
 10 12  1  0  0  0
 12 13  2  0  0  0
 13 14  1  0  0  0
 14 15  2  0  0  0
 15 16  1  0  0  0
 16 17  2  0  0  0
 29 21  1  0  0  0
  6  1  1  0  0  0
 17 12  1  0  0  0
 28 23  1  0  0  0
 10 11  1  0  0  0
M  END
> <minimizedAffinity>
-8.57838

> <CNNscore>
0.2273049355

> <CNNaffinity>
6.6530714035

> <CNN_VS>
1.5122759342

> <CNNaffinity_variance>
0.1089688763

$$$$
[H]c1c([H])c([H])c(N([H])S(=O)(=O)c2c([H])c([H])c(C(=O)C([H])([H])n3c(C([H])([H])C([H])([H])C([H])([H])C([H])([H])[H])nc4c([H])c([H])c([H])c([H])c43)c([H])c2[H])c([H])c1[H]


 33 36  0  0  0  0  0  0  0  0999 V2000
  -88.2063   30.1402   -2.5932 C   0  0  0  0  0  0  0  0  0  0  0  0
  -88.5234   30.5409   -1.2798 C   0  0  0  0  0  0  0  0  0  0  0  0
  -88.2909   29.7579   -0.1783 C   0  0  0  0  0  0  0  0  0  0  0  0
  -87.7277   28.5261   -0.3102 C   0  0  0  0  0  0  0  0  0  0  0  0
  -87.3998   28.0883   -1.5555 C   0  0  0  0  0  0  0  0  0  0  0  0
  -87.6412   28.8932   -2.6614 C   0  0  0  0  0  0  0  0  0  0  0  0
  -87.4450   27.5413    1.0897 S   0  0  0  0  0  0  0  0  0  0  0  0
  -88.7375   27.0229    1.6740 O   0  0  0  0  0  0  0  0  0  0  0  0
  -86.6275   26.3281    0.7057 O   0  0  0  0  0  0  0  0  0  0  0  0
  -86.6438   28.4768    2.3023 N   0  0  0  0  0  0  0  0  0  0  0  0
  -87.1613   28.7646    3.1503 H   0  0  0  0  0  0  0  0  0  0  0  0
  -85.2735   28.8429    2.1190 C   0  0  0  0  0  0  0  0  0  0  0  0
  -84.9207   30.0357    1.5184 C   0  0  0  0  0  0  0  0  0  0  0  0
  -83.5979   30.3696    1.3476 C   0  0  0  0  0  0  0  0  0  0  0  0
  -82.6104   29.5217    1.7711 C   0  0  0  0  0  0  0  0  0  0  0  0
  -82.9428   28.3301    2.3707 C   0  0  0  0  0  0  0  0  0  0  0  0
  -84.2681   28.0119    2.5338 C   0  0  0  0  0  0  0  0  0  0  0  0
  -88.4933   31.0141   -3.6977 C   0  0  0  0  0  0  0  0  0  0  0  0
  -87.9530   30.6056   -4.8263 O   0  0  0  0  0  0  0  0  0  0  0  0
  -89.2507   32.2444   -3.8121 C   0  0  0  0  0  0  0  0  0  0  0  0
  -87.4053   33.8789   -3.8854 C   0  0  0  0  0  0  0  0  0  0  0  0
  -87.1492   34.9619   -4.6418 N   0  0  0  0  0  0  0  0  0  0  0  0
  -88.1308   35.2209   -5.4810 C   0  0  0  0  0  0  0  0  0  0  0  0
  -88.3532   36.1825   -6.4723 C   0  0  0  0  0  0  0  0  0  0  0  0
  -89.4946   36.1803   -7.2285 C   0  0  0  0  0  0  0  0  0  0  0  0
  -90.4664   35.2248   -7.0344 C   0  0  0  0  0  0  0  0  0  0  0  0
  -90.2377   34.2879   -6.0588 C   0  0  0  0  0  0  0  0  0  0  0  0
  -89.0928   34.2581   -5.2718 C   0  0  0  0  0  0  0  0  0  0  0  0
  -88.6251   33.4376   -4.2802 N   0  0  0  0  0  0  0  0  0  0  0  0
  -86.4720   33.3481   -2.8537 C   0  0  0  0  0  0  0  0  0  0  0  0
  -86.8202   33.7662   -1.4583 C   0  0  0  0  0  0  0  0  0  0  0  0
  -84.4946   33.3148   -0.7419 C   0  0  0  0  0  0  0  0  0  0  0  0
  -85.9564   33.1479   -0.3979 C   0  0  0  0  0  0  0  0  0  0  0  0
 32 33  1  0  0  0
 33 31  1  0  0  0
 31 30  1  0  0  0
 30 21  1  0  0  0
 21 22  2  0  0  0
 22 23  1  0  0  0
 23 24  2  0  0  0
 24 25  1  0  0  0
 25 26  2  0  0  0
 26 27  1  0  0  0
 27 28  2  0  0  0
 28 29  1  0  0  0
 29 20  1  0  0  0
 20 18  1  0  0  0
 18 19  2  0  0  0
 18  1  1  0  0  0
  1  2  2  0  0  0
  2  3  1  0  0  0
  3  4  2  0  0  0
  4  5  1  0  0  0
  5  6  2  0  0  0
  4  7  1  0  0  0
  7  8  2  0  0  0
  7  9  2  0  0  0
  7 10  1  0  0  0
 10 12  1  0  0  0
 12 13  2  0  0  0
 13 14  1  0  0  0
 14 15  2  0  0  0
 15 16  1  0  0  0
 16 17  2  0  0  0
 29 21  1  0  0  0
  6  1  1  0  0  0
 17 12  1  0  0  0
 28 23  1  0  0  0
 10 11  1  0  0  0
M  END
> <minimizedAffinity>
-9.43683

> <CNNscore>
0.2193011940

> <CNNaffinity>
6.3578224182

> <CNN_VS>
1.3942780495

> <CNNaffinity_variance>
0.5867632627

$$$$
[H]c1c([H])c([H])c(N([H])S(=O)(=O)c2c([H])c([H])c(C(=O)C([H])([H])n3c(C([H])([H])C([H])([H])C([H])([H])C([H])([H])[H])nc4c([H])c([H])c([H])c([H])c43)c([H])c2[H])c([H])c1[H]


 33 36  0  0  0  0  0  0  0  0999 V2000
  -88.2530   31.4955   -1.4589 C   0  0  0  0  0  0  0  0  0  0  0  0
  -87.1034   32.2403   -1.7902 C   0  0  0  0  0  0  0  0  0  0  0  0
  -87.1463   33.4127   -2.5000 C   0  0  0  0  0  0  0  0  0  0  0  0
  -88.3342   33.9215   -2.9265 C   0  0  0  0  0  0  0  0  0  0  0  0
  -89.4770   33.2444   -2.6339 C   0  0  0  0  0  0  0  0  0  0  0  0
  -89.4172   32.0583   -1.9136 C   0  0  0  0  0  0  0  0  0  0  0  0
  -88.3756   35.4017   -3.8302 S   0  0  0  0  0  0  0  0  0  0  0  0
  -89.7440   36.0393   -3.7890 O   0  0  0  0  0  0  0  0  0  0  0  0
  -87.4157   36.3999   -3.2220 O   0  0  0  0  0  0  0  0  0  0  0  0
  -87.9810   35.0816   -5.4823 N   0  0  0  0  0  0  0  0  0  0  0  0
  -87.6599   34.1376   -5.7570 H   0  0  0  0  0  0  0  0  0  0  0  0
  -88.1027   36.1264   -6.4511 C   0  0  0  0  0  0  0  0  0  0  0  0
  -89.2845   36.3427   -7.1327 C   0  0  0  0  0  0  0  0  0  0  0  0
  -89.3822   37.3501   -8.0633 C   0  0  0  0  0  0  0  0  0  0  0  0
  -88.3064   38.1538   -8.3279 C   0  0  0  0  0  0  0  0  0  0  0  0
  -87.1219   37.9531   -7.6594 C   0  0  0  0  0  0  0  0  0  0  0  0
  -87.0412   36.9432   -6.7333 C   0  0  0  0  0  0  0  0  0  0  0  0
  -88.1235   30.2679   -0.7224 C   0  0  0  0  0  0  0  0  0  0  0  0
  -88.9854   30.1728    0.2679 O   0  0  0  0  0  0  0  0  0  0  0  0
  -87.2389   29.1273   -0.8524 C   0  0  0  0  0  0  0  0  0  0  0  0
  -86.6382   27.6309    1.0137 C   0  0  0  0  0  0  0  0  0  0  0  0
  -85.5807   27.5526    1.8420 N   0  0  0  0  0  0  0  0  0  0  0  0
  -84.7164   28.5241    1.6320 C   0  0  0  0  0  0  0  0  0  0  0  0
  -83.4799   28.8800    2.1806 C   0  0  0  0  0  0  0  0  0  0  0  0
  -82.7775   29.9617    1.7210 C   0  0  0  0  0  0  0  0  0  0  0  0
  -83.2709   30.7390    0.6975 C   0  0  0  0  0  0  0  0  0  0  0  0
  -84.4849   30.3809    0.1685 C   0  0  0  0  0  0  0  0  0  0  0  0
  -85.2264   29.2911    0.6083 C   0  0  0  0  0  0  0  0  0  0  0  0
  -86.4163   28.7221    0.2399 N   0  0  0  0  0  0  0  0  0  0  0  0
  -87.7701   26.6635    1.0198 C   0  0  0  0  0  0  0  0  0  0  0  0
  -88.3357   26.4110    2.3834 C   0  0  0  0  0  0  0  0  0  0  0  0
  -89.8843   27.0769    4.1956 C   0  0  0  0  0  0  0  0  0  0  0  0
  -89.3741   27.4065    2.8121 C   0  0  0  0  0  0  0  0  0  0  0  0
 32 33  1  0  0  0
 33 31  1  0  0  0
 31 30  1  0  0  0
 30 21  1  0  0  0
 21 22  2  0  0  0
 22 23  1  0  0  0
 23 24  2  0  0  0
 24 25  1  0  0  0
 25 26  2  0  0  0
 26 27  1  0  0  0
 27 28  2  0  0  0
 28 29  1  0  0  0
 29 20  1  0  0  0
 20 18  1  0  0  0
 18 19  2  0  0  0
 18  1  1  0  0  0
  1  2  2  0  0  0
  2  3  1  0  0  0
  3  4  2  0  0  0
  4  5  1  0  0  0
  5  6  2  0  0  0
  4  7  1  0  0  0
  7  8  2  0  0  0
  7  9  2  0  0  0
  7 10  1  0  0  0
 10 12  1  0  0  0
 12 13  2  0  0  0
 13 14  1  0  0  0
 14 15  2  0  0  0
 15 16  1  0  0  0
 16 17  2  0  0  0
 29 21  1  0  0  0
  6  1  1  0  0  0
 17 12  1  0  0  0
 28 23  1  0  0  0
 10 11  1  0  0  0
M  END
> <minimizedAffinity>
-8.25438

> <CNNscore>
0.1963872015

> <CNNaffinity>
6.4734129906

> <CNN_VS>
1.2712954283

> <CNNaffinity_variance>
0.0976533666

$$$$
[H]c1c([H])c([H])c(N([H])S(=O)(=O)c2c([H])c([H])c(C(=O)C([H])([H])n3c(C([H])([H])C([H])([H])C([H])([H])C([H])([H])[H])nc4c([H])c([H])c([H])c([H])c43)c([H])c2[H])c([H])c1[H]


 33 36  0  0  0  0  0  0  0  0999 V2000
  -87.4807   27.6651   -0.2047 C   0  0  0  0  0  0  0  0  0  0  0  0
  -87.0277   27.9903    1.0895 C   0  0  0  0  0  0  0  0  0  0  0  0
  -86.1100   28.9782    1.3385 C   0  0  0  0  0  0  0  0  0  0  0  0
  -85.5828   29.7075    0.3175 C   0  0  0  0  0  0  0  0  0  0  0  0
  -85.9851   29.4372   -0.9533 C   0  0  0  0  0  0  0  0  0  0  0  0
  -86.9159   28.4336   -1.1893 C   0  0  0  0  0  0  0  0  0  0  0  0
  -84.4168   30.9499    0.6438 S   0  0  0  0  0  0  0  0  0  0  0  0
  -83.7871   30.7765    2.0054 O   0  0  0  0  0  0  0  0  0  0  0  0
  -83.2923   30.8743   -0.3648 O   0  0  0  0  0  0  0  0  0  0  0  0
  -85.1911   32.4946    0.6022 N   0  0  0  0  0  0  0  0  0  0  0  0
  -85.0219   33.1714    1.3658 H   0  0  0  0  0  0  0  0  0  0  0  0
  -86.0578   32.8194   -0.4880 C   0  0  0  0  0  0  0  0  0  0  0  0
  -87.4242   32.6367   -0.4011 C   0  0  0  0  0  0  0  0  0  0  0  0
  -88.2418   32.9516   -1.4608 C   0  0  0  0  0  0  0  0  0  0  0  0
  -87.7109   33.4510   -2.6192 C   0  0  0  0  0  0  0  0  0  0  0  0
  -86.3531   33.6392   -2.7239 C   0  0  0  0  0  0  0  0  0  0  0  0
  -85.5510   33.3200   -1.6567 C   0  0  0  0  0  0  0  0  0  0  0  0
  -88.4359   26.6061   -0.3843 C   0  0  0  0  0  0  0  0  0  0  0  0
  -88.0730   25.7417   -1.3082 O   0  0  0  0  0  0  0  0  0  0  0  0
  -89.7076   26.3069    0.2432 C   0  0  0  0  0  0  0  0  0  0  0  0
  -90.8659   28.1414    1.4160 C   0  0  0  0  0  0  0  0  0  0  0  0
  -91.1190   28.4066    2.7107 N   0  0  0  0  0  0  0  0  0  0  0  0
  -90.5783   27.5123    3.5124 C   0  0  0  0  0  0  0  0  0  0  0  0
  -90.5594   27.3118    4.8967 C   0  0  0  0  0  0  0  0  0  0  0  0
  -89.9178   26.2395    5.4561 C   0  0  0  0  0  0  0  0  0  0  0  0
  -89.2654   25.3189    4.6673 C   0  0  0  0  0  0  0  0  0  0  0  0
  -89.2898   25.5267    3.3115 C   0  0  0  0  0  0  0  0  0  0  0  0
  -89.9297   26.6023    2.7077 C   0  0  0  0  0  0  0  0  0  0  0  0
  -90.1191   27.0096    1.4141 N   0  0  0  0  0  0  0  0  0  0  0  0
  -91.3555   28.9790    0.2865 C   0  0  0  0  0  0  0  0  0  0  0  0
  -90.3275   29.9304   -0.2440 C   0  0  0  0  0  0  0  0  0  0  0  0
  -90.6239   28.7545   -2.4015 C   0  0  0  0  0  0  0  0  0  0  0  0
  -90.3432   30.0823   -1.7372 C   0  0  0  0  0  0  0  0  0  0  0  0
 32 33  1  0  0  0
 33 31  1  0  0  0
 31 30  1  0  0  0
 30 21  1  0  0  0
 21 22  2  0  0  0
 22 23  1  0  0  0
 23 24  2  0  0  0
 24 25  1  0  0  0
 25 26  2  0  0  0
 26 27  1  0  0  0
 27 28  2  0  0  0
 28 29  1  0  0  0
 29 20  1  0  0  0
 20 18  1  0  0  0
 18 19  2  0  0  0
 18  1  1  0  0  0
  1  2  2  0  0  0
  2  3  1  0  0  0
  3  4  2  0  0  0
  4  5  1  0  0  0
  5  6  2  0  0  0
  4  7  1  0  0  0
  7  8  2  0  0  0
  7  9  2  0  0  0
  7 10  1  0  0  0
 10 12  1  0  0  0
 12 13  2  0  0  0
 13 14  1  0  0  0
 14 15  2  0  0  0
 15 16  1  0  0  0
 16 17  2  0  0  0
 29 21  1  0  0  0
  6  1  1  0  0  0
 17 12  1  0  0  0
 28 23  1  0  0  0
 10 11  1  0  0  0
M  END
> <minimizedAffinity>
-7.85450

> <CNNscore>
0.1706911176

> <CNNaffinity>
6.2993597984

> <CNN_VS>
1.0752447844

> <CNNaffinity_variance>
0.7331908345

$$$$
[H]c1c([H])c([H])c(N([H])S(=O)(=O)c2c([H])c([H])c(C(=O)C([H])([H])n3c(C([H])([H])C([H])([H])C([H])([H])C([H])([H])[H])nc4c([H])c([H])c([H])c([H])c43)c([H])c2[H])c([H])c1[H]


 33 36  0  0  0  0  0  0  0  0999 V2000
  -88.1106   30.0874   -2.5420 C   0  0  0  0  0  0  0  0  0  0  0  0
  -87.8974   28.6953   -2.5942 C   0  0  0  0  0  0  0  0  0  0  0  0
  -87.6788   27.9262   -1.4803 C   0  0  0  0  0  0  0  0  0  0  0  0
  -87.6582   28.4901   -0.2419 C   0  0  0  0  0  0  0  0  0  0  0  0
  -87.8595   29.8308   -0.1319 C   0  0  0  0  0  0  0  0  0  0  0  0
  -88.0801   30.5964   -1.2696 C   0  0  0  0  0  0  0  0  0  0  0  0
  -87.3734   27.5082    1.1596 S   0  0  0  0  0  0  0  0  0  0  0  0
  -88.6663   27.0112    1.7612 O   0  0  0  0  0  0  0  0  0  0  0  0
  -86.5777   26.2816    0.7723 O   0  0  0  0  0  0  0  0  0  0  0  0
  -86.5450   28.4380    2.3582 N   0  0  0  0  0  0  0  0  0  0  0  0
  -87.0743   28.8329    3.1542 H   0  0  0  0  0  0  0  0  0  0  0  0
  -85.1362   28.6512    2.2355 C   0  0  0  0  0  0  0  0  0  0  0  0
  -84.2255   27.6872    2.6219 C   0  0  0  0  0  0  0  0  0  0  0  0
  -82.8744   27.9110    2.4997 C   0  0  0  0  0  0  0  0  0  0  0  0
  -82.4127   29.0954    1.9926 C   0  0  0  0  0  0  0  0  0  0  0  0
  -83.3045   30.0665    1.6031 C   0  0  0  0  0  0  0  0  0  0  0  0
  -84.6499   29.8272    1.7315 C   0  0  0  0  0  0  0  0  0  0  0  0
  -88.3201   30.8261   -3.7571 C   0  0  0  0  0  0  0  0  0  0  0  0
  -89.3362   30.3741   -4.4612 O   0  0  0  0  0  0  0  0  0  0  0  0
  -87.6388   31.9571   -4.3547 C   0  0  0  0  0  0  0  0  0  0  0  0
  -87.1900   34.0330   -3.1011 C   0  0  0  0  0  0  0  0  0  0  0  0
  -87.7719   35.2457   -3.0679 N   0  0  0  0  0  0  0  0  0  0  0  0
  -88.8412   35.3012   -3.8350 C   0  0  0  0  0  0  0  0  0  0  0  0
  -89.7654   36.2968   -4.1685 C   0  0  0  0  0  0  0  0  0  0  0  0
  -90.7884   36.0588   -5.0468 C   0  0  0  0  0  0  0  0  0  0  0  0
  -90.9407   34.8223   -5.6324 C   0  0  0  0  0  0  0  0  0  0  0  0
  -90.0292   33.8537   -5.2967 C   0  0  0  0  0  0  0  0  0  0  0  0
  -88.9789   34.0575   -4.4100 C   0  0  0  0  0  0  0  0  0  0  0  0
  -87.9476   33.2871   -3.9428 N   0  0  0  0  0  0  0  0  0  0  0  0
  -85.9617   33.6809   -2.3366 C   0  0  0  0  0  0  0  0  0  0  0  0
  -86.1725   33.6278   -0.8547 C   0  0  0  0  0  0  0  0  0  0  0  0
  -83.7974   32.9697   -0.6285 C   0  0  0  0  0  0  0  0  0  0  0  0
  -85.2044   32.7405   -0.1277 C   0  0  0  0  0  0  0  0  0  0  0  0
 32 33  1  0  0  0
 33 31  1  0  0  0
 31 30  1  0  0  0
 30 21  1  0  0  0
 21 22  2  0  0  0
 22 23  1  0  0  0
 23 24  2  0  0  0
 24 25  1  0  0  0
 25 26  2  0  0  0
 26 27  1  0  0  0
 27 28  2  0  0  0
 28 29  1  0  0  0
 29 20  1  0  0  0
 20 18  1  0  0  0
 18 19  2  0  0  0
 18  1  1  0  0  0
  1  2  2  0  0  0
  2  3  1  0  0  0
  3  4  2  0  0  0
  4  5  1  0  0  0
  5  6  2  0  0  0
  4  7  1  0  0  0
  7  8  2  0  0  0
  7  9  2  0  0  0
  7 10  1  0  0  0
 10 12  1  0  0  0
 12 13  2  0  0  0
 13 14  1  0  0  0
 14 15  2  0  0  0
 15 16  1  0  0  0
 16 17  2  0  0  0
 29 21  1  0  0  0
  6  1  1  0  0  0
 17 12  1  0  0  0
 28 23  1  0  0  0
 10 11  1  0  0  0
M  END
> <minimizedAffinity>
-9.13699

> <CNNscore>
0.1353450418

> <CNNaffinity>
6.1958074570

> <CNN_VS>
0.8385718465

> <CNNaffinity_variance>
0.7605230808

$$$$
[H]c1c([H])c([H])c(N([H])S(=O)(=O)c2c([H])c([H])c(C(=O)C([H])([H])n3c(C([H])([H])C([H])([H])C([H])([H])C([H])([H])[H])nc4c([H])c([H])c([H])c([H])c43)c([H])c2[H])c([H])c1[H]


 33 36  0  0  0  0  0  0  0  0999 V2000
  -88.8857   28.5010   -2.1668 C   0  0  0  0  0  0  0  0  0  0  0  0
  -87.9717   29.1509   -3.0202 C   0  0  0  0  0  0  0  0  0  0  0  0
  -88.2185   30.3701   -3.5971 C   0  0  0  0  0  0  0  0  0  0  0  0
  -89.3894   31.0230   -3.3633 C   0  0  0  0  0  0  0  0  0  0  0  0
  -90.3085   30.4425   -2.5458 C   0  0  0  0  0  0  0  0  0  0  0  0
  -90.0436   29.2073   -1.9685 C   0  0  0  0  0  0  0  0  0  0  0  0
  -89.6937   32.5616   -4.1046 S   0  0  0  0  0  0  0  0  0  0  0  0
  -89.0513   32.6578   -5.4680 O   0  0  0  0  0  0  0  0  0  0  0  0
  -91.1806   32.7439   -4.3141 O   0  0  0  0  0  0  0  0  0  0  0  0
  -89.0432   33.8195   -3.1137 N   0  0  0  0  0  0  0  0  0  0  0  0
  -89.4664   34.7628   -3.1425 H   0  0  0  0  0  0  0  0  0  0  0  0
  -87.9263   33.5416   -2.2650 C   0  0  0  0  0  0  0  0  0  0  0  0
  -88.0946   32.9856   -1.0118 C   0  0  0  0  0  0  0  0  0  0  0  0
  -87.0091   32.7284   -0.2080 C   0  0  0  0  0  0  0  0  0  0  0  0
  -85.7438   33.0212   -0.6401 C   0  0  0  0  0  0  0  0  0  0  0  0
  -85.5572   33.5753   -1.8844 C   0  0  0  0  0  0  0  0  0  0  0  0
  -86.6514   33.8256   -2.6743 C   0  0  0  0  0  0  0  0  0  0  0  0
  -88.5579   27.2166   -1.6109 C   0  0  0  0  0  0  0  0  0  0  0  0
  -89.4200   26.2799   -1.9454 O   0  0  0  0  0  0  0  0  0  0  0  0
  -87.4778   26.7549   -0.7620 C   0  0  0  0  0  0  0  0  0  0  0  0
  -87.8079   27.0244    1.6672 C   0  0  0  0  0  0  0  0  0  0  0  0
  -87.2184   27.7831    2.6091 N   0  0  0  0  0  0  0  0  0  0  0  0
  -86.3094   28.5872    2.0974 C   0  0  0  0  0  0  0  0  0  0  0  0
  -85.4195   29.5307    2.6216 C   0  0  0  0  0  0  0  0  0  0  0  0
  -84.5434   30.2115    1.8195 C   0  0  0  0  0  0  0  0  0  0  0  0
  -84.5117   29.9875    0.4615 C   0  0  0  0  0  0  0  0  0  0  0  0
  -85.3898   29.0611   -0.0411 C   0  0  0  0  0  0  0  0  0  0  0  0
  -86.2929   28.3512    0.7408 C   0  0  0  0  0  0  0  0  0  0  0  0
  -87.2277   27.3812    0.4947 N   0  0  0  0  0  0  0  0  0  0  0  0
  -88.8694   26.0205    1.9550 C   0  0  0  0  0  0  0  0  0  0  0  0
  -89.2943   25.9921    3.3909 C   0  0  0  0  0  0  0  0  0  0  0  0
  -90.1125   27.8316    4.8303 C   0  0  0  0  0  0  0  0  0  0  0  0
  -90.4592   26.8849    3.7049 C   0  0  0  0  0  0  0  0  0  0  0  0
 32 33  1  0  0  0
 33 31  1  0  0  0
 31 30  1  0  0  0
 30 21  1  0  0  0
 21 22  2  0  0  0
 22 23  1  0  0  0
 23 24  2  0  0  0
 24 25  1  0  0  0
 25 26  2  0  0  0
 26 27  1  0  0  0
 27 28  2  0  0  0
 28 29  1  0  0  0
 29 20  1  0  0  0
 20 18  1  0  0  0
 18 19  2  0  0  0
 18  1  1  0  0  0
  1  2  2  0  0  0
  2  3  1  0  0  0
  3  4  2  0  0  0
  4  5  1  0  0  0
  5  6  2  0  0  0
  4  7  1  0  0  0
  7  8  2  0  0  0
  7  9  2  0  0  0
  7 10  1  0  0  0
 10 12  1  0  0  0
 12 13  2  0  0  0
 13 14  1  0  0  0
 14 15  2  0  0  0
 15 16  1  0  0  0
 16 17  2  0  0  0
 29 21  1  0  0  0
  6  1  1  0  0  0
 17 12  1  0  0  0
 28 23  1  0  0  0
 10 11  1  0  0  0
M  END
> <minimizedAffinity>
-7.94827

> <CNNscore>
0.1314895451

> <CNNaffinity>
6.5268049240

> <CNN_VS>
0.8582066298

> <CNNaffinity_variance>
0.2098346651

$$$$
[H]c1oc(C(=O)N([H])c2nnc(-c3c([H])c([H])c(Oc4c([H])c([H])c([N+](=O)[O-])c([H])c4[H])c([H])c3[H])s2)c([H])c1[H]


 30 33  0  0  0  0  0  0  0  0999 V2000
  -85.9912   32.7272   -0.4468 C   0  0  0  0  0  0  0  0  0  0  0  0
  -87.2684   32.2282   -0.3925 C   0  0  0  0  0  0  0  0  0  0  0  0
  -88.2183   32.4486   -1.4027 C   0  0  0  0  0  0  0  0  0  0  0  0
  -87.8883   33.1904   -2.5021 C   0  0  0  0  0  0  0  0  0  0  0  0
  -86.6148   33.7006   -2.5765 C   0  0  0  0  0  0  0  0  0  0  0  0
  -85.6758   33.4913   -1.5941 C   0  0  0  0  0  0  0  0  0  0  0  0
  -88.8441   33.4407   -3.5938 C   0  0  0  0  0  0  0  0  0  0  0  0
  -89.7154   34.4417   -3.7125 N   0  0  0  0  0  0  0  0  0  0  0  0
  -90.4559   34.4923   -4.7214 N   0  0  0  0  0  0  0  0  0  0  0  0
  -90.4129   33.5960   -5.6784 C   0  0  0  0  0  0  0  0  0  0  0  0
  -89.1505   32.5706   -5.0248 S   0  0  0  0  0  0  0  0  0  0  0  0
  -91.1124   33.4205   -6.8868 N   0  0  0  0  0  0  0  0  0  0  0  0
  -91.1747   34.2904   -7.9500 C   0  0  0  0  0  0  0  0  0  0  0  0
  -91.8874   33.8869   -8.9649 O   0  0  0  0  0  0  0  0  0  0  0  0
  -91.6485   32.4881   -6.9700 H   0  0  0  0  0  0  0  0  0  0  0  0
  -90.5656   35.5958   -8.1150 C   0  0  0  0  0  0  0  0  0  0  0  0
  -91.1303   36.6199   -8.8984 C   0  0  0  0  0  0  0  0  0  0  0  0
  -90.3013   37.6924   -8.8261 C   0  0  0  0  0  0  0  0  0  0  0  0
  -89.2564   37.3399   -8.0230 C   0  0  0  0  0  0  0  0  0  0  0  0
  -89.4658   36.1090   -7.6398 O   0  0  0  0  0  0  0  0  0  0  0  0
  -85.0392   32.5306    0.5127 O   0  0  0  0  0  0  0  0  0  0  0  0
  -83.8837   28.8707    1.9972 C   0  0  0  0  0  0  0  0  0  0  0  0
  -82.9085   29.7490    1.5659 C   0  0  0  0  0  0  0  0  0  0  0  0
  -83.2578   30.9881    1.0629 C   0  0  0  0  0  0  0  0  0  0  0  0
  -84.5801   31.3516    0.9884 C   0  0  0  0  0  0  0  0  0  0  0  0
  -85.5680   30.4475    1.4308 C   0  0  0  0  0  0  0  0  0  0  0  0
  -85.2371   29.2143    1.9334 C   0  0  0  0  0  0  0  0  0  0  0  0
  -82.2101   27.3377    2.7728 O   0  0  0  0  0  0  0  0  0  0  0  0
  -83.5216   27.5995    2.5154 N   0  0  0  0  0  0  0  0  0  0  0  0
  -84.4098   26.7628    2.7181 O   0  0  0  0  0  0  0  0  0  0  0  0
 28 29  1  0  0  0
 29 30  2  0  0  0
 29 22  1  0  0  0
 22 23  2  0  0  0
 23 24  1  0  0  0
 24 25  2  0  0  0
 25 21  1  0  0  0
 21  1  1  0  0  0
  1  2  2  0  0  0
  2  3  1  0  0  0
  3  4  2  0  0  0
  4  5  1  0  0  0
  5  6  2  0  0  0
  4  7  1  0  0  0
  7  8  2  0  0  0
  8  9  1  0  0  0
  9 10  2  0  0  0
 10 12  1  0  0  0
 12 13  1  0  0  0
 13 14  2  0  0  0
 13 16  1  0  0  0
 16 17  2  0  0  0
 17 18  1  0  0  0
 18 19  2  0  0  0
 19 20  1  0  0  0
 10 11  1  0  0  0
 25 26  1  0  0  0
 26 27  2  0  0  0
 27 22  1  0  0  0
  6  1  1  0  0  0
 11  7  1  0  0  0
 20 16  1  0  0  0
 12 15  1  0  0  0
M  CHG 1  28  -1
M  CHG 1  29   1
M  END
> <minimizedAffinity>
-8.87559

> <CNNscore>
0.4464115798

> <CNNaffinity>
6.3141403198

> <CNN_VS>
2.8187053204

> <CNNaffinity_variance>
0.3433951437

$$$$
[H]c1oc(C(=O)N([H])c2nnc(-c3c([H])c([H])c(Oc4c([H])c([H])c([N+](=O)[O-])c([H])c4[H])c([H])c3[H])s2)c([H])c1[H]


 30 33  0  0  0  0  0  0  0  0999 V2000
  -85.8919   32.7879   -0.4428 C   0  0  0  0  0  0  0  0  0  0  0  0
  -87.2187   32.4557   -0.3304 C   0  0  0  0  0  0  0  0  0  0  0  0
  -88.1547   32.6937   -1.3495 C   0  0  0  0  0  0  0  0  0  0  0  0
  -87.7593   33.2824   -2.5179 C   0  0  0  0  0  0  0  0  0  0  0  0
  -86.4353   33.6242   -2.6513 C   0  0  0  0  0  0  0  0  0  0  0  0
  -85.5093   33.3959   -1.6608 C   0  0  0  0  0  0  0  0  0  0  0  0
  -88.6992   33.5428   -3.6209 C   0  0  0  0  0  0  0  0  0  0  0  0
  -89.4362   34.6321   -3.8354 N   0  0  0  0  0  0  0  0  0  0  0  0
  -90.1866   34.6758   -4.8372 N   0  0  0  0  0  0  0  0  0  0  0  0
  -90.2817   33.6885   -5.6958 C   0  0  0  0  0  0  0  0  0  0  0  0
  -89.1482   32.5787   -4.9505 S   0  0  0  0  0  0  0  0  0  0  0  0
  -91.0253   33.4837   -6.8728 N   0  0  0  0  0  0  0  0  0  0  0  0
  -92.3907   33.5517   -7.0210 C   0  0  0  0  0  0  0  0  0  0  0  0
  -92.8368   33.3295   -8.2261 O   0  0  0  0  0  0  0  0  0  0  0  0
  -90.4370   33.2548   -7.7477 H   0  0  0  0  0  0  0  0  0  0  0  0
  -93.4160   33.8337   -6.0353 C   0  0  0  0  0  0  0  0  0  0  0  0
  -94.0685   32.8341   -5.2894 C   0  0  0  0  0  0  0  0  0  0  0  0
  -94.9574   33.4517   -4.4703 C   0  0  0  0  0  0  0  0  0  0  0  0
  -94.8567   34.7918   -4.7046 C   0  0  0  0  0  0  0  0  0  0  0  0
  -93.9440   34.9524   -5.6249 O   0  0  0  0  0  0  0  0  0  0  0  0
  -84.9519   32.5684    0.5235 O   0  0  0  0  0  0  0  0  0  0  0  0
  -83.8820   28.8712    1.9794 C   0  0  0  0  0  0  0  0  0  0  0  0
  -82.8849   29.7769    1.6729 C   0  0  0  0  0  0  0  0  0  0  0  0
  -83.2053   31.0291    1.1835 C   0  0  0  0  0  0  0  0  0  0  0  0
  -84.5205   31.3786    0.9982 C   0  0  0  0  0  0  0  0  0  0  0  0
  -85.5309   30.4465    1.3136 C   0  0  0  0  0  0  0  0  0  0  0  0
  -85.2288   29.2000    1.8011 C   0  0  0  0  0  0  0  0  0  0  0  0
  -82.2474   27.2989    2.7595 O   0  0  0  0  0  0  0  0  0  0  0  0
  -83.5497   27.5865    2.4839 N   0  0  0  0  0  0  0  0  0  0  0  0
  -84.4549   26.7616    2.6586 O   0  0  0  0  0  0  0  0  0  0  0  0
 28 29  1  0  0  0
 29 30  2  0  0  0
 29 22  1  0  0  0
 22 23  2  0  0  0
 23 24  1  0  0  0
 24 25  2  0  0  0
 25 21  1  0  0  0
 21  1  1  0  0  0
  1  2  2  0  0  0
  2  3  1  0  0  0
  3  4  2  0  0  0
  4  5  1  0  0  0
  5  6  2  0  0  0
  4  7  1  0  0  0
  7  8  2  0  0  0
  8  9  1  0  0  0
  9 10  2  0  0  0
 10 12  1  0  0  0
 12 13  1  0  0  0
 13 14  2  0  0  0
 13 16  1  0  0  0
 16 17  2  0  0  0
 17 18  1  0  0  0
 18 19  2  0  0  0
 19 20  1  0  0  0
 10 11  1  0  0  0
 25 26  1  0  0  0
 26 27  2  0  0  0
 27 22  1  0  0  0
  6  1  1  0  0  0
 11  7  1  0  0  0
 20 16  1  0  0  0
 12 15  1  0  0  0
M  CHG 1  28  -1
M  CHG 1  29   1
M  END
> <minimizedAffinity>
-8.39013

> <CNNscore>
0.3168220520

> <CNNaffinity>
6.2303500175

> <CNN_VS>
1.9739122391

> <CNNaffinity_variance>
0.4353476167

$$$$
[H]c1oc(C(=O)N([H])c2nnc(-c3c([H])c([H])c(Oc4c([H])c([H])c([N+](=O)[O-])c([H])c4[H])c([H])c3[H])s2)c([H])c1[H]


 30 33  0  0  0  0  0  0  0  0999 V2000
  -91.1547   27.1131   -0.4274 C   0  0  0  0  0  0  0  0  0  0  0  0
  -91.2967   28.1764    0.4284 C   0  0  0  0  0  0  0  0  0  0  0  0
  -90.4890   29.3231    0.3627 C   0  0  0  0  0  0  0  0  0  0  0  0
  -89.5072   29.4151   -0.5838 C   0  0  0  0  0  0  0  0  0  0  0  0
  -89.3471   28.3611   -1.4505 C   0  0  0  0  0  0  0  0  0  0  0  0
  -90.1319   27.2334   -1.3963 C   0  0  0  0  0  0  0  0  0  0  0  0
  -88.6416   30.6003   -0.7016 C   0  0  0  0  0  0  0  0  0  0  0  0
  -89.0011   31.8830   -0.7335 N   0  0  0  0  0  0  0  0  0  0  0  0
  -88.1170   32.7639   -0.8386 N   0  0  0  0  0  0  0  0  0  0  0  0
  -86.8387   32.4799   -0.9189 C   0  0  0  0  0  0  0  0  0  0  0  0
  -86.9492   30.7328   -0.8311 S   0  0  0  0  0  0  0  0  0  0  0  0
  -85.6700   33.2545   -1.0391 N   0  0  0  0  0  0  0  0  0  0  0  0
  -84.4566   33.0360   -0.4302 C   0  0  0  0  0  0  0  0  0  0  0  0
  -83.5216   33.8994   -0.7148 O   0  0  0  0  0  0  0  0  0  0  0  0
  -85.7561   34.1081   -1.6932 H   0  0  0  0  0  0  0  0  0  0  0  0
  -84.0564   31.9861    0.4863 C   0  0  0  0  0  0  0  0  0  0  0  0
  -82.8891   31.2172    0.3203 C   0  0  0  0  0  0  0  0  0  0  0  0
  -82.8295   30.3386    1.3533 C   0  0  0  0  0  0  0  0  0  0  0  0
  -83.9276   30.5585    2.1324 C   0  0  0  0  0  0  0  0  0  0  0  0
  -84.6034   31.5284    1.5772 O   0  0  0  0  0  0  0  0  0  0  0  0
  -91.9232   25.9843   -0.3974 O   0  0  0  0  0  0  0  0  0  0  0  0
  -94.2579   24.6263   -3.5020 C   0  0  0  0  0  0  0  0  0  0  0  0
  -93.4287   23.7305   -2.8551 C   0  0  0  0  0  0  0  0  0  0  0  0
  -92.6312   24.1490   -1.8067 C   0  0  0  0  0  0  0  0  0  0  0  0
  -92.6592   25.4616   -1.4035 C   0  0  0  0  0  0  0  0  0  0  0  0
  -93.5088   26.3683   -2.0708 C   0  0  0  0  0  0  0  0  0  0  0  0
  -94.3070   25.9678   -3.1127 C   0  0  0  0  0  0  0  0  0  0  0  0
  -94.9842   22.9029   -5.0037 O   0  0  0  0  0  0  0  0  0  0  0  0
  -95.0775   24.1929   -4.5772 N   0  0  0  0  0  0  0  0  0  0  0  0
  -95.8549   25.0016   -5.0984 O   0  0  0  0  0  0  0  0  0  0  0  0
 28 29  1  0  0  0
 29 30  2  0  0  0
 29 22  1  0  0  0
 22 23  2  0  0  0
 23 24  1  0  0  0
 24 25  2  0  0  0
 25 21  1  0  0  0
 21  1  1  0  0  0
  1  2  2  0  0  0
  2  3  1  0  0  0
  3  4  2  0  0  0
  4  5  1  0  0  0
  5  6  2  0  0  0
  4  7  1  0  0  0
  7  8  2  0  0  0
  8  9  1  0  0  0
  9 10  2  0  0  0
 10 12  1  0  0  0
 12 13  1  0  0  0
 13 14  2  0  0  0
 13 16  1  0  0  0
 16 17  2  0  0  0
 17 18  1  0  0  0
 18 19  2  0  0  0
 19 20  1  0  0  0
 10 11  1  0  0  0
 25 26  1  0  0  0
 26 27  2  0  0  0
 27 22  1  0  0  0
  6  1  1  0  0  0
 11  7  1  0  0  0
 20 16  1  0  0  0
 12 15  1  0  0  0
M  CHG 1  28  -1
M  CHG 1  29   1
M  END
> <minimizedAffinity>
-7.02461

> <CNNscore>
0.2475707978

> <CNNaffinity>
5.9309973717

> <CNN_VS>
1.4683417082

> <CNNaffinity_variance>
0.1009892225

$$$$
[H]c1oc(C(=O)N([H])c2nnc(-c3c([H])c([H])c(Oc4c([H])c([H])c([N+](=O)[O-])c([H])c4[H])c([H])c3[H])s2)c([H])c1[H]


 30 33  0  0  0  0  0  0  0  0999 V2000
  -89.2263   29.4709   -1.4146 C   0  0  0  0  0  0  0  0  0  0  0  0
  -88.5271   30.4876   -0.8140 C   0  0  0  0  0  0  0  0  0  0  0  0
  -88.1572   31.6625   -1.4880 C   0  0  0  0  0  0  0  0  0  0  0  0
  -88.4921   31.8317   -2.8023 C   0  0  0  0  0  0  0  0  0  0  0  0
  -89.1916   30.8254   -3.4235 C   0  0  0  0  0  0  0  0  0  0  0  0
  -89.5597   29.6707   -2.7742 C   0  0  0  0  0  0  0  0  0  0  0  0
  -88.1380   33.0494   -3.5503 C   0  0  0  0  0  0  0  0  0  0  0  0
  -87.1864   33.9396   -3.2719 N   0  0  0  0  0  0  0  0  0  0  0  0
  -87.0285   34.9240   -4.0300 N   0  0  0  0  0  0  0  0  0  0  0  0
  -87.7641   35.1218   -5.0982 C   0  0  0  0  0  0  0  0  0  0  0  0
  -88.7970   33.7113   -4.9738 S   0  0  0  0  0  0  0  0  0  0  0  0
  -87.7962   36.1159   -6.0937 N   0  0  0  0  0  0  0  0  0  0  0  0
  -87.6978   37.4764   -5.9195 C   0  0  0  0  0  0  0  0  0  0  0  0
  -87.7454   38.1875   -7.0115 O   0  0  0  0  0  0  0  0  0  0  0  0
  -87.9045   35.7462   -7.1014 H   0  0  0  0  0  0  0  0  0  0  0  0
  -87.5492   38.2450   -4.6991 C   0  0  0  0  0  0  0  0  0  0  0  0
  -88.5843   38.4151   -3.7605 C   0  0  0  0  0  0  0  0  0  0  0  0
  -88.0978   39.1821   -2.7517 C   0  0  0  0  0  0  0  0  0  0  0  0
  -86.8018   39.4767   -3.0594 C   0  0  0  0  0  0  0  0  0  0  0  0
  -86.5398   38.9042   -4.2036 O   0  0  0  0  0  0  0  0  0  0  0  0
  -89.6074   28.3168   -0.7914 O   0  0  0  0  0  0  0  0  0  0  0  0
  -90.3525   27.6235    3.1958 C   0  0  0  0  0  0  0  0  0  0  0  0
  -91.0810   28.6006    2.5455 C   0  0  0  0  0  0  0  0  0  0  0  0
  -90.8604   28.8607    1.2061 C   0  0  0  0  0  0  0  0  0  0  0  0
  -89.9119   28.1475    0.5147 C   0  0  0  0  0  0  0  0  0  0  0  0
  -89.1732   27.1526    1.1880 C   0  0  0  0  0  0  0  0  0  0  0  0
  -89.3813   26.8820    2.5170 C   0  0  0  0  0  0  0  0  0  0  0  0
  -91.2369   26.2161    4.9249 O   0  0  0  0  0  0  0  0  0  0  0  0
  -90.5829   27.3571    4.5711 N   0  0  0  0  0  0  0  0  0  0  0  0
  -90.1830   28.1716    5.4118 O   0  0  0  0  0  0  0  0  0  0  0  0
 28 29  1  0  0  0
 29 30  2  0  0  0
 29 22  1  0  0  0
 22 23  2  0  0  0
 23 24  1  0  0  0
 24 25  2  0  0  0
 25 21  1  0  0  0
 21  1  1  0  0  0
  1  2  2  0  0  0
  2  3  1  0  0  0
  3  4  2  0  0  0
  4  5  1  0  0  0
  5  6  2  0  0  0
  4  7  1  0  0  0
  7  8  2  0  0  0
  8  9  1  0  0  0
  9 10  2  0  0  0
 10 12  1  0  0  0
 12 13  1  0  0  0
 13 14  2  0  0  0
 13 16  1  0  0  0
 16 17  2  0  0  0
 17 18  1  0  0  0
 18 19  2  0  0  0
 19 20  1  0  0  0
 10 11  1  0  0  0
 25 26  1  0  0  0
 26 27  2  0  0  0
 27 22  1  0  0  0
  6  1  1  0  0  0
 11  7  1  0  0  0
 20 16  1  0  0  0
 12 15  1  0  0  0
M  CHG 1  28  -1
M  CHG 1  29   1
M  END
> <minimizedAffinity>
-7.46877

> <CNNscore>
0.1807242781

> <CNNaffinity>
5.5952906609

> <CNN_VS>
1.0112048388

> <CNNaffinity_variance>
0.1414493620

$$$$
[H]c1oc(C(=O)N([H])c2nnc(-c3c([H])c([H])c(Oc4c([H])c([H])c([N+](=O)[O-])c([H])c4[H])c([H])c3[H])s2)c([H])c1[H]


 30 33  0  0  0  0  0  0  0  0999 V2000
  -91.3993   27.1024   -1.2951 C   0  0  0  0  0  0  0  0  0  0  0  0
  -91.8166   28.2690   -0.7048 C   0  0  0  0  0  0  0  0  0  0  0  0
  -90.9984   29.4048   -0.5951 C   0  0  0  0  0  0  0  0  0  0  0  0
  -89.7234   29.3797   -1.0869 C   0  0  0  0  0  0  0  0  0  0  0  0
  -89.2848   28.2212   -1.6811 C   0  0  0  0  0  0  0  0  0  0  0  0
  -90.0765   27.1028   -1.7949 C   0  0  0  0  0  0  0  0  0  0  0  0
  -88.8301   30.5473   -1.0070 C   0  0  0  0  0  0  0  0  0  0  0  0
  -89.1141   31.7734   -0.5692 N   0  0  0  0  0  0  0  0  0  0  0  0
  -88.2178   32.6482   -0.5748 N   0  0  0  0  0  0  0  0  0  0  0  0
  -86.9980   32.4112   -0.9955 C   0  0  0  0  0  0  0  0  0  0  0  0
  -87.1901   30.7238   -1.4290 S   0  0  0  0  0  0  0  0  0  0  0  0
  -85.8320   33.1914   -1.1055 N   0  0  0  0  0  0  0  0  0  0  0  0
  -84.6255   32.9836   -0.4793 C   0  0  0  0  0  0  0  0  0  0  0  0
  -83.6916   33.8503   -0.7573 O   0  0  0  0  0  0  0  0  0  0  0  0
  -85.9141   34.0403   -1.7661 H   0  0  0  0  0  0  0  0  0  0  0  0
  -84.2317   31.9418    0.4491 C   0  0  0  0  0  0  0  0  0  0  0  0
  -82.9709   31.3164    0.4214 C   0  0  0  0  0  0  0  0  0  0  0  0
  -82.9479   30.4012    1.4236 C   0  0  0  0  0  0  0  0  0  0  0  0
  -84.1584   30.4599    2.0499 C   0  0  0  0  0  0  0  0  0  0  0  0
  -84.8624   31.3741    1.4383 O   0  0  0  0  0  0  0  0  0  0  0  0
  -92.1666   25.9799   -1.4244 O   0  0  0  0  0  0  0  0  0  0  0  0
  -91.5461   22.4939    0.6723 C   0  0  0  0  0  0  0  0  0  0  0  0
  -92.2804   22.4425   -0.4967 C   0  0  0  0  0  0  0  0  0  0  0  0
  -92.5082   23.5923   -1.2293 C   0  0  0  0  0  0  0  0  0  0  0  0
  -92.0049   24.7943   -0.7956 C   0  0  0  0  0  0  0  0  0  0  0  0
  -91.2570   24.8361    0.3994 C   0  0  0  0  0  0  0  0  0  0  0  0
  -91.0216   23.7033    1.1371 C   0  0  0  0  0  0  0  0  0  0  0  0
  -91.1783   20.1255    0.7641 O   0  0  0  0  0  0  0  0  0  0  0  0
  -91.3120   21.3108    1.4213 N   0  0  0  0  0  0  0  0  0  0  0  0
  -91.2368   21.3899    2.6535 O   0  0  0  0  0  0  0  0  0  0  0  0
 28 29  1  0  0  0
 29 30  2  0  0  0
 29 22  1  0  0  0
 22 23  2  0  0  0
 23 24  1  0  0  0
 24 25  2  0  0  0
 25 21  1  0  0  0
 21  1  1  0  0  0
  1  2  2  0  0  0
  2  3  1  0  0  0
  3  4  2  0  0  0
  4  5  1  0  0  0
  5  6  2  0  0  0
  4  7  1  0  0  0
  7  8  2  0  0  0
  8  9  1  0  0  0
  9 10  2  0  0  0
 10 12  1  0  0  0
 12 13  1  0  0  0
 13 14  2  0  0  0
 13 16  1  0  0  0
 16 17  2  0  0  0
 17 18  1  0  0  0
 18 19  2  0  0  0
 19 20  1  0  0  0
 10 11  1  0  0  0
 25 26  1  0  0  0
 26 27  2  0  0  0
 27 22  1  0  0  0
  6  1  1  0  0  0
 11  7  1  0  0  0
 20 16  1  0  0  0
 12 15  1  0  0  0
M  CHG 1  28  -1
M  CHG 1  29   1
M  END
> <minimizedAffinity>
-7.20848

> <CNNscore>
0.1763737500

> <CNNaffinity>
5.8394989967

> <CNN_VS>
1.0299342871

> <CNNaffinity_variance>
0.1915727556

$$$$
[H]c1oc(C(=O)N([H])c2nnc(-c3c([H])c([H])c(Oc4c([H])c([H])c([N+](=O)[O-])c([H])c4[H])c([H])c3[H])s2)c([H])c1[H]


 30 33  0  0  0  0  0  0  0  0999 V2000
  -86.0100   32.9174   -0.6202 C   0  0  0  0  0  0  0  0  0  0  0  0
  -85.6924   33.4086   -1.8616 C   0  0  0  0  0  0  0  0  0  0  0  0
  -86.6483   33.6143   -2.8692 C   0  0  0  0  0  0  0  0  0  0  0  0
  -87.9626   33.3210   -2.6357 C   0  0  0  0  0  0  0  0  0  0  0  0
  -88.3027   32.8270   -1.3995 C   0  0  0  0  0  0  0  0  0  0  0  0
  -87.3759   32.6216   -0.4048 C   0  0  0  0  0  0  0  0  0  0  0  0
  -89.0047   33.5295   -3.6547 C   0  0  0  0  0  0  0  0  0  0  0  0
  -89.5868   34.6724   -4.0158 N   0  0  0  0  0  0  0  0  0  0  0  0
  -90.4625   34.6572   -4.9112 N   0  0  0  0  0  0  0  0  0  0  0  0
  -90.8373   33.5561   -5.5179 C   0  0  0  0  0  0  0  0  0  0  0  0
  -89.7918   32.4240   -4.6829 S   0  0  0  0  0  0  0  0  0  0  0  0
  -91.7712   33.2659   -6.5298 N   0  0  0  0  0  0  0  0  0  0  0  0
  -92.9487   32.5668   -6.4045 C   0  0  0  0  0  0  0  0  0  0  0  0
  -93.6473   32.4422   -7.4987 O   0  0  0  0  0  0  0  0  0  0  0  0
  -91.5179   33.6503   -7.5055 H   0  0  0  0  0  0  0  0  0  0  0  0
  -93.5349   31.9429   -5.2343 C   0  0  0  0  0  0  0  0  0  0  0  0
  -93.5849   30.5492   -5.0434 C   0  0  0  0  0  0  0  0  0  0  0  0
  -94.1946   30.3226   -3.8520 C   0  0  0  0  0  0  0  0  0  0  0  0
  -94.5118   31.5401   -3.3244 C   0  0  0  0  0  0  0  0  0  0  0  0
  -94.1033   32.4440   -4.1739 O   0  0  0  0  0  0  0  0  0  0  0  0
  -85.1100   32.7083    0.3857 O   0  0  0  0  0  0  0  0  0  0  0  0
  -84.0356   29.0164    1.8518 C   0  0  0  0  0  0  0  0  0  0  0  0
  -83.0506   29.9661    1.6609 C   0  0  0  0  0  0  0  0  0  0  0  0
  -83.3732   31.2180    1.1720 C   0  0  0  0  0  0  0  0  0  0  0  0
  -84.6782   31.5232    0.8718 C   0  0  0  0  0  0  0  0  0  0  0  0
  -85.6761   30.5465    1.0698 C   0  0  0  0  0  0  0  0  0  0  0  0
  -85.3719   29.2996    1.5553 C   0  0  0  0  0  0  0  0  0  0  0  0
  -82.4027   27.4564    2.6597 O   0  0  0  0  0  0  0  0  0  0  0  0
  -83.7014   27.7321    2.3562 N   0  0  0  0  0  0  0  0  0  0  0  0
  -84.6016   26.8969    2.5054 O   0  0  0  0  0  0  0  0  0  0  0  0
 28 29  1  0  0  0
 29 30  2  0  0  0
 29 22  1  0  0  0
 22 23  2  0  0  0
 23 24  1  0  0  0
 24 25  2  0  0  0
 25 21  1  0  0  0
 21  1  1  0  0  0
  1  2  2  0  0  0
  2  3  1  0  0  0
  3  4  2  0  0  0
  4  5  1  0  0  0
  5  6  2  0  0  0
  4  7  1  0  0  0
  7  8  2  0  0  0
  8  9  1  0  0  0
  9 10  2  0  0  0
 10 12  1  0  0  0
 12 13  1  0  0  0
 13 14  2  0  0  0
 13 16  1  0  0  0
 16 17  2  0  0  0
 17 18  1  0  0  0
 18 19  2  0  0  0
 19 20  1  0  0  0
 10 11  1  0  0  0
 25 26  1  0  0  0
 26 27  2  0  0  0
 27 22  1  0  0  0
  6  1  1  0  0  0
 11  7  1  0  0  0
 20 16  1  0  0  0
 12 15  1  0  0  0
M  CHG 1  28  -1
M  CHG 1  29   1
M  END
> <minimizedAffinity>
-8.34830

> <CNNscore>
0.1663677096

> <CNNaffinity>
6.0015254021

> <CNN_VS>
0.9984600544

> <CNNaffinity_variance>
0.2936750948

$$$$
[H]c1oc(C(=O)N([H])c2nnc(-c3c([H])c([H])c(Oc4c([H])c([H])c([N+](=O)[O-])c([H])c4[H])c([H])c3[H])s2)c([H])c1[H]


 30 33  0  0  0  0  0  0  0  0999 V2000
  -92.2198   27.4124   -3.1040 C   0  0  0  0  0  0  0  0  0  0  0  0
  -91.1157   26.6155   -3.2751 C   0  0  0  0  0  0  0  0  0  0  0  0
  -90.0729   26.5435   -2.3376 C   0  0  0  0  0  0  0  0  0  0  0  0
  -90.1287   27.2889   -1.1934 C   0  0  0  0  0  0  0  0  0  0  0  0
  -91.2251   28.0947   -1.0024 C   0  0  0  0  0  0  0  0  0  0  0  0
  -92.2525   28.1734   -1.9127 C   0  0  0  0  0  0  0  0  0  0  0  0
  -89.0671   27.2403   -0.1744 C   0  0  0  0  0  0  0  0  0  0  0  0
  -89.1161   27.6665    1.0872 N   0  0  0  0  0  0  0  0  0  0  0  0
  -88.1048   27.5411    1.8153 N   0  0  0  0  0  0  0  0  0  0  0  0
  -86.9866   27.0030    1.3895 C   0  0  0  0  0  0  0  0  0  0  0  0
  -87.4745   26.6441   -0.2553 S   0  0  0  0  0  0  0  0  0  0  0  0
  -85.7361   26.7473    1.9821 N   0  0  0  0  0  0  0  0  0  0  0  0
  -84.7153   27.6429    2.1986 C   0  0  0  0  0  0  0  0  0  0  0  0
  -83.6539   27.1555    2.7786 O   0  0  0  0  0  0  0  0  0  0  0  0
  -85.5845   25.7279    2.3010 H   0  0  0  0  0  0  0  0  0  0  0  0
  -84.6389   29.0548    1.8776 C   0  0  0  0  0  0  0  0  0  0  0  0
  -85.0448   30.0725    2.7612 C   0  0  0  0  0  0  0  0  0  0  0  0
  -84.8335   31.2604    2.1392 C   0  0  0  0  0  0  0  0  0  0  0  0
  -84.3138   30.9835    0.9087 C   0  0  0  0  0  0  0  0  0  0  0  0
  -84.2241   29.6840    0.8142 O   0  0  0  0  0  0  0  0  0  0  0  0
  -93.2550   27.5054   -3.9901 O   0  0  0  0  0  0  0  0  0  0  0  0
  -95.0627   24.4842   -6.1204 C   0  0  0  0  0  0  0  0  0  0  0  0
  -95.3995   24.6514   -4.7911 C   0  0  0  0  0  0  0  0  0  0  0  0
  -94.8149   25.6563   -4.0436 C   0  0  0  0  0  0  0  0  0  0  0  0
  -93.8928   26.4944   -4.6211 C   0  0  0  0  0  0  0  0  0  0  0  0
  -93.5554   26.3151   -5.9787 C   0  0  0  0  0  0  0  0  0  0  0  0
  -94.1277   25.3227   -6.7340 C   0  0  0  0  0  0  0  0  0  0  0  0
  -95.7745   22.2053   -6.3495 O   0  0  0  0  0  0  0  0  0  0  0  0
  -95.6665   23.4524   -6.8860 N   0  0  0  0  0  0  0  0  0  0  0  0
  -96.0779   23.7156   -8.0226 O   0  0  0  0  0  0  0  0  0  0  0  0
 28 29  1  0  0  0
 29 30  2  0  0  0
 29 22  1  0  0  0
 22 23  2  0  0  0
 23 24  1  0  0  0
 24 25  2  0  0  0
 25 21  1  0  0  0
 21  1  1  0  0  0
  1  2  2  0  0  0
  2  3  1  0  0  0
  3  4  2  0  0  0
  4  5  1  0  0  0
  5  6  2  0  0  0
  4  7  1  0  0  0
  7  8  2  0  0  0
  8  9  1  0  0  0
  9 10  2  0  0  0
 10 12  1  0  0  0
 12 13  1  0  0  0
 13 14  2  0  0  0
 13 16  1  0  0  0
 16 17  2  0  0  0
 17 18  1  0  0  0
 18 19  2  0  0  0
 19 20  1  0  0  0
 10 11  1  0  0  0
 25 26  1  0  0  0
 26 27  2  0  0  0
 27 22  1  0  0  0
  6  1  1  0  0  0
 11  7  1  0  0  0
 20 16  1  0  0  0
 12 15  1  0  0  0
M  CHG 1  28  -1
M  CHG 1  29   1
M  END
> <minimizedAffinity>
-6.94214

> <CNNscore>
0.1580085903

> <CNNaffinity>
5.5624184608

> <CNN_VS>
0.8789098859

> <CNNaffinity_variance>
0.1597087383

$$$$
[H]c1oc(C(=O)N([H])c2nnc(-c3c([H])c([H])c(Oc4c([H])c([H])c([N+](=O)[O-])c([H])c4[H])c([H])c3[H])s2)c([H])c1[H]


 30 33  0  0  0  0  0  0  0  0999 V2000
  -88.1063   28.9970   -0.6287 C   0  0  0  0  0  0  0  0  0  0  0  0
  -87.5597   30.0606    0.0445 C   0  0  0  0  0  0  0  0  0  0  0  0
  -87.4557   31.3453   -0.5125 C   0  0  0  0  0  0  0  0  0  0  0  0
  -87.9083   31.5800   -1.7806 C   0  0  0  0  0  0  0  0  0  0  0  0
  -88.4585   30.5286   -2.4731 C   0  0  0  0  0  0  0  0  0  0  0  0
  -88.5663   29.2665   -1.9384 C   0  0  0  0  0  0  0  0  0  0  0  0
  -87.8326   32.9110   -2.4055 C   0  0  0  0  0  0  0  0  0  0  0  0
  -88.8066   33.8083   -2.5531 N   0  0  0  0  0  0  0  0  0  0  0  0
  -88.5542   34.8987   -3.1154 N   0  0  0  0  0  0  0  0  0  0  0  0
  -87.3620   35.2027   -3.5705 C   0  0  0  0  0  0  0  0  0  0  0  0
  -86.5241   33.7291   -3.1247 S   0  0  0  0  0  0  0  0  0  0  0  0
  -86.8210   36.3257   -4.2236 N   0  0  0  0  0  0  0  0  0  0  0  0
  -87.5035   37.4060   -4.7316 C   0  0  0  0  0  0  0  0  0  0  0  0
  -86.7650   38.3275   -5.2850 O   0  0  0  0  0  0  0  0  0  0  0  0
  -85.7465   36.3211   -4.3202 H   0  0  0  0  0  0  0  0  0  0  0  0
  -88.9277   37.6776   -4.7465 C   0  0  0  0  0  0  0  0  0  0  0  0
  -89.5530   38.5791   -3.8646 C   0  0  0  0  0  0  0  0  0  0  0  0
  -90.8778   38.5856   -4.1600 C   0  0  0  0  0  0  0  0  0  0  0  0
  -91.0640   37.7136   -5.1926 C   0  0  0  0  0  0  0  0  0  0  0  0
  -89.8937   37.2164   -5.4901 O   0  0  0  0  0  0  0  0  0  0  0  0
  -88.2288   27.7357   -0.1191 O   0  0  0  0  0  0  0  0  0  0  0  0
  -89.9219   26.7751    3.5064 C   0  0  0  0  0  0  0  0  0  0  0  0
  -88.6562   26.3017    3.2196 C   0  0  0  0  0  0  0  0  0  0  0  0
  -88.0540   26.6050    2.0131 C   0  0  0  0  0  0  0  0  0  0  0  0
  -88.7144   27.3795    1.0910 C   0  0  0  0  0  0  0  0  0  0  0  0
  -90.0065   27.8573    1.3932 C   0  0  0  0  0  0  0  0  0  0  0  0
  -90.6171   27.5657    2.5869 C   0  0  0  0  0  0  0  0  0  0  0  0
  -89.9990   26.9586    5.8966 O   0  0  0  0  0  0  0  0  0  0  0  0
  -90.5369   26.4637    4.7474 N   0  0  0  0  0  0  0  0  0  0  0  0
  -91.5465   25.7489    4.7504 O   0  0  0  0  0  0  0  0  0  0  0  0
 28 29  1  0  0  0
 29 30  2  0  0  0
 29 22  1  0  0  0
 22 23  2  0  0  0
 23 24  1  0  0  0
 24 25  2  0  0  0
 25 21  1  0  0  0
 21  1  1  0  0  0
  1  2  2  0  0  0
  2  3  1  0  0  0
  3  4  2  0  0  0
  4  5  1  0  0  0
  5  6  2  0  0  0
  4  7  1  0  0  0
  7  8  2  0  0  0
  8  9  1  0  0  0
  9 10  2  0  0  0
 10 12  1  0  0  0
 12 13  1  0  0  0
 13 14  2  0  0  0
 13 16  1  0  0  0
 16 17  2  0  0  0
 17 18  1  0  0  0
 18 19  2  0  0  0
 19 20  1  0  0  0
 10 11  1  0  0  0
 25 26  1  0  0  0
 26 27  2  0  0  0
 27 22  1  0  0  0
  6  1  1  0  0  0
 11  7  1  0  0  0
 20 16  1  0  0  0
 12 15  1  0  0  0
M  CHG 1  28  -1
M  CHG 1  29   1
M  END
> <minimizedAffinity>
-7.25279

> <CNNscore>
0.0822356865

> <CNNaffinity>
5.4795918465

> <CNN_VS>
0.4506179988

> <CNNaffinity_variance>
0.1956536025

$$$$
[H]c1oc(C(=O)N([H])c2nnc(-c3c([H])c([H])c(Oc4c([H])c([H])c([N+](=O)[O-])c([H])c4[H])c([H])c3[H])s2)c([H])c1[H]


 30 33  0  0  0  0  0  0  0  0999 V2000
  -91.4330   27.7050   -2.0884 C   0  0  0  0  0  0  0  0  0  0  0  0
  -90.1132   27.3586   -2.2349 C   0  0  0  0  0  0  0  0  0  0  0  0
  -89.0558   28.2164   -1.8918 C   0  0  0  0  0  0  0  0  0  0  0  0
  -89.3189   29.4594   -1.3882 C   0  0  0  0  0  0  0  0  0  0  0  0
  -90.6337   29.8271   -1.2342 C   0  0  0  0  0  0  0  0  0  0  0  0
  -91.6776   28.9960   -1.5660 C   0  0  0  0  0  0  0  0  0  0  0  0
  -88.2462   30.3914   -1.0027 C   0  0  0  0  0  0  0  0  0  0  0  0
  -88.3405   31.6960   -0.7482 N   0  0  0  0  0  0  0  0  0  0  0  0
  -87.3102   32.3337   -0.4311 N   0  0  0  0  0  0  0  0  0  0  0  0
  -86.1290   31.7710   -0.3360 C   0  0  0  0  0  0  0  0  0  0  0  0
  -86.5816   30.1311   -0.7579 S   0  0  0  0  0  0  0  0  0  0  0  0
  -84.8444   32.2422   -0.0071 N   0  0  0  0  0  0  0  0  0  0  0  0
  -83.9351   31.6628    0.8464 C   0  0  0  0  0  0  0  0  0  0  0  0
  -82.8023   32.2960    0.9745 O   0  0  0  0  0  0  0  0  0  0  0  0
  -84.5582   33.1602   -0.4963 H   0  0  0  0  0  0  0  0  0  0  0  0
  -84.0451   30.4483    1.6307 C   0  0  0  0  0  0  0  0  0  0  0  0
  -83.0058   29.5064    1.7490 C   0  0  0  0  0  0  0  0  0  0  0  0
  -83.4516   28.5063    2.5512 C   0  0  0  0  0  0  0  0  0  0  0  0
  -84.7277   28.8215    2.9160 C   0  0  0  0  0  0  0  0  0  0  0  0
  -85.0176   29.9620    2.3495 O   0  0  0  0  0  0  0  0  0  0  0  0
  -92.4876   26.8972   -2.4062 O   0  0  0  0  0  0  0  0  0  0  0  0
  -92.8763   22.8472   -1.7901 C   0  0  0  0  0  0  0  0  0  0  0  0
  -93.0459   23.7002   -0.7168 C   0  0  0  0  0  0  0  0  0  0  0  0
  -92.9251   25.0668   -0.8851 C   0  0  0  0  0  0  0  0  0  0  0  0
  -92.6335   25.5834   -2.1238 C   0  0  0  0  0  0  0  0  0  0  0  0
  -92.4617   24.7039   -3.2129 C   0  0  0  0  0  0  0  0  0  0  0  0
  -92.5794   23.3452   -3.0620 C   0  0  0  0  0  0  0  0  0  0  0  0
  -93.6287   20.7096   -2.5757 O   0  0  0  0  0  0  0  0  0  0  0  0
  -93.0033   21.4441   -1.6145 N   0  0  0  0  0  0  0  0  0  0  0  0
  -92.5418   20.9269   -0.5900 O   0  0  0  0  0  0  0  0  0  0  0  0
 28 29  1  0  0  0
 29 30  2  0  0  0
 29 22  1  0  0  0
 22 23  2  0  0  0
 23 24  1  0  0  0
 24 25  2  0  0  0
 25 21  1  0  0  0
 21  1  1  0  0  0
  1  2  2  0  0  0
  2  3  1  0  0  0
  3  4  2  0  0  0
  4  5  1  0  0  0
  5  6  2  0  0  0
  4  7  1  0  0  0
  7  8  2  0  0  0
  8  9  1  0  0  0
  9 10  2  0  0  0
 10 12  1  0  0  0
 12 13  1  0  0  0
 13 14  2  0  0  0
 13 16  1  0  0  0
 16 17  2  0  0  0
 17 18  1  0  0  0
 18 19  2  0  0  0
 19 20  1  0  0  0
 10 11  1  0  0  0
 25 26  1  0  0  0
 26 27  2  0  0  0
 27 22  1  0  0  0
  6  1  1  0  0  0
 11  7  1  0  0  0
 20 16  1  0  0  0
 12 15  1  0  0  0
M  CHG 1  28  -1
M  CHG 1  29   1
M  END
> <minimizedAffinity>
-7.08746

> <CNNscore>
0.0780048296

> <CNNaffinity>
5.5640320778

> <CNN_VS>
0.4340213835

> <CNNaffinity_variance>
0.1889963746

$$$$
[H]c1c([H])c(N2C([H])([H])C([H])([H])N(C3([H])C([H])([H])C([H])([H])N(S(=O)(=O)c4c([H])c([H])c(OC([H])([H])[H])c([H])c4[H])C([H])([H])C3([H])[H])C([H])([H])C2([H])[H])c([H])c([H])c1C#N


 31 34  0  0  0  0  0  0  0  0999 V2000
  -87.4657   32.5262   -1.3912 N   0  0  0  0  0  0  0  0  0  0  0  0
  -88.3488   31.7801   -0.5975 C   0  0  0  0  0  0  0  0  0  0  0  0
  -89.7908   31.8226   -1.0359 C   0  0  0  0  0  0  0  0  0  0  0  0
  -89.8442   31.5796   -2.5225 C   0  0  0  0  0  0  0  0  0  0  0  0
  -89.1310   32.7408   -3.1797 C   0  0  0  0  0  0  0  0  0  0  0  0
  -87.6774   32.6345   -2.7745 C   0  0  0  0  0  0  0  0  0  0  0  0
  -91.1202   31.4291   -3.0663 N   0  0  0  0  0  0  0  0  0  0  0  0
  -91.5261   32.2218   -4.1577 C   0  0  0  0  0  0  0  0  0  0  0  0
  -92.1194   31.3137   -5.2220 C   0  0  0  0  0  0  0  0  0  0  0  0
  -92.9769   30.3441   -4.5028 N   0  0  0  0  0  0  0  0  0  0  0  0
  -93.3949   30.7943   -3.1962 C   0  0  0  0  0  0  0  0  0  0  0  0
  -92.1263   30.7701   -2.3263 C   0  0  0  0  0  0  0  0  0  0  0  0
  -93.3308   29.1244   -5.0703 C   0  0  0  0  0  0  0  0  0  0  0  0
  -94.4489   28.4425   -4.6194 C   0  0  0  0  0  0  0  0  0  0  0  0
  -94.8493   27.2422   -5.1405 C   0  0  0  0  0  0  0  0  0  0  0  0
  -94.1413   26.6642   -6.1465 C   0  0  0  0  0  0  0  0  0  0  0  0
  -93.0283   27.3103   -6.6186 C   0  0  0  0  0  0  0  0  0  0  0  0
  -92.6217   28.5400   -6.0821 C   0  0  0  0  0  0  0  0  0  0  0  0
  -94.5827   25.3930   -6.6831 C   0  0  0  0  0  0  0  0  0  0  0  0
  -94.9265   24.3743   -7.1241 N   0  0  0  0  0  0  0  0  0  0  0  0
  -85.9586   32.9274   -0.7682 S   0  0  0  0  0  0  0  0  0  0  0  0
  -84.9886   33.1270   -1.8977 O   0  0  0  0  0  0  0  0  0  0  0  0
  -85.9518   34.1718    0.0729 O   0  0  0  0  0  0  0  0  0  0  0  0
  -84.4304   29.3567    1.6403 C   0  0  0  0  0  0  0  0  0  0  0  0
  -83.9616   30.6385    1.8530 C   0  0  0  0  0  0  0  0  0  0  0  0
  -84.4057   31.7106    1.1448 C   0  0  0  0  0  0  0  0  0  0  0  0
  -85.3611   31.5501    0.1682 C   0  0  0  0  0  0  0  0  0  0  0  0
  -85.8440   30.2785   -0.0616 C   0  0  0  0  0  0  0  0  0  0  0  0
  -85.3831   29.1931    0.6673 C   0  0  0  0  0  0  0  0  0  0  0  0
  -82.5733   28.0233    2.4671 C   0  0  0  0  0  0  0  0  0  0  0  0
  -83.9609   28.2689    2.3786 O   0  0  0  0  0  0  0  0  0  0  0  0
 30 31  1  0  0  0
 31 24  1  0  0  0
 24 25  2  0  0  0
 25 26  1  0  0  0
 26 27  2  0  0  0
 27 28  1  0  0  0
 28 29  2  0  0  0
 27 21  1  0  0  0
 21 22  2  0  0  0
 21 23  2  0  0  0
 21  1  1  0  0  0
  1  2  1  0  0  0
  2  3  1  0  0  0
  3  4  1  0  0  0
  4  5  1  0  0  0
  5  6  1  0  0  0
  4  7  1  0  0  0
  7  8  1  0  0  0
  8  9  1  0  0  0
  9 10  1  0  0  0
 10 11  1  0  0  0
 11 12  1  0  0  0
 10 13  1  0  0  0
 13 14  2  0  0  0
 14 15  1  0  0  0
 15 16  2  0  0  0
 16 17  1  0  0  0
 17 18  2  0  0  0
 16 19  1  0  0  0
 19 20  3  0  0  0
 29 24  1  0  0  0
  6  1  1  0  0  0
 12  7  1  0  0  0
 18 13  1  0  0  0
M  END
> <minimizedAffinity>
-7.22840

> <CNNscore>
0.2926275432

> <CNNaffinity>
6.0892801285

> <CNN_VS>
1.7818911076

> <CNNaffinity_variance>
0.0427056886

$$$$
[H]c1c([H])c(N2C([H])([H])C([H])([H])N(C3([H])C([H])([H])C([H])([H])N(S(=O)(=O)c4c([H])c([H])c(OC([H])([H])[H])c([H])c4[H])C([H])([H])C3([H])[H])C([H])([H])C2([H])[H])c([H])c([H])c1C#N


 31 34  0  0  0  0  0  0  0  0999 V2000
  -86.6666   27.8322    1.6769 N   0  0  0  0  0  0  0  0  0  0  0  0
  -87.8595   27.8480    2.4140 C   0  0  0  0  0  0  0  0  0  0  0  0
  -89.0497   27.2435    1.7133 C   0  0  0  0  0  0  0  0  0  0  0  0
  -88.6341   25.9201    1.1236 C   0  0  0  0  0  0  0  0  0  0  0  0
  -87.5878   26.2207    0.0729 C   0  0  0  0  0  0  0  0  0  0  0  0
  -86.3843   26.7642    0.8111 C   0  0  0  0  0  0  0  0  0  0  0  0
  -89.6612   25.1526    0.5735 N   0  0  0  0  0  0  0  0  0  0  0  0
  -90.8857   25.0100    1.2552 C   0  0  0  0  0  0  0  0  0  0  0  0
  -92.0176   25.3022    0.2843 C   0  0  0  0  0  0  0  0  0  0  0  0
  -91.6585   24.6227   -0.9814 N   0  0  0  0  0  0  0  0  0  0  0  0
  -90.7069   23.5496   -0.8160 C   0  0  0  0  0  0  0  0  0  0  0  0
  -89.3750   24.2311   -0.4575 C   0  0  0  0  0  0  0  0  0  0  0  0
  -92.2137   25.0076   -2.1973 C   0  0  0  0  0  0  0  0  0  0  0  0
  -91.8987   26.2376   -2.7508 C   0  0  0  0  0  0  0  0  0  0  0  0
  -92.4093   26.6697   -3.9446 C   0  0  0  0  0  0  0  0  0  0  0  0
  -93.2673   25.8821   -4.6454 C   0  0  0  0  0  0  0  0  0  0  0  0
  -93.6021   24.6575   -4.1285 C   0  0  0  0  0  0  0  0  0  0  0  0
  -93.0765   24.2186   -2.9052 C   0  0  0  0  0  0  0  0  0  0  0  0
  -93.7963   26.3593   -5.9068 C   0  0  0  0  0  0  0  0  0  0  0  0
  -94.2205   26.7559   -6.9134 N   0  0  0  0  0  0  0  0  0  0  0  0
  -85.4161   28.8540    2.1379 S   0  0  0  0  0  0  0  0  0  0  0  0
  -85.6685   29.3547    3.5316 O   0  0  0  0  0  0  0  0  0  0  0  0
  -84.0577   28.2133    2.1155 O   0  0  0  0  0  0  0  0  0  0  0  0
  -85.5048   32.5156   -0.5954 C   0  0  0  0  0  0  0  0  0  0  0  0
  -84.3997   32.1999    0.1707 C   0  0  0  0  0  0  0  0  0  0  0  0
  -84.3579   31.1148    0.9887 C   0  0  0  0  0  0  0  0  0  0  0  0
  -85.4427   30.2741    1.0827 C   0  0  0  0  0  0  0  0  0  0  0  0
  -86.5578   30.5698    0.3264 C   0  0  0  0  0  0  0  0  0  0  0  0
  -86.5881   31.6793   -0.5041 C   0  0  0  0  0  0  0  0  0  0  0  0
  -86.5099   33.7430   -2.4377 C   0  0  0  0  0  0  0  0  0  0  0  0
  -85.5274   33.6350   -1.4293 O   0  0  0  0  0  0  0  0  0  0  0  0
 30 31  1  0  0  0
 31 24  1  0  0  0
 24 25  2  0  0  0
 25 26  1  0  0  0
 26 27  2  0  0  0
 27 28  1  0  0  0
 28 29  2  0  0  0
 27 21  1  0  0  0
 21 22  2  0  0  0
 21 23  2  0  0  0
 21  1  1  0  0  0
  1  2  1  0  0  0
  2  3  1  0  0  0
  3  4  1  0  0  0
  4  5  1  0  0  0
  5  6  1  0  0  0
  4  7  1  0  0  0
  7  8  1  0  0  0
  8  9  1  0  0  0
  9 10  1  0  0  0
 10 11  1  0  0  0
 11 12  1  0  0  0
 10 13  1  0  0  0
 13 14  2  0  0  0
 14 15  1  0  0  0
 15 16  2  0  0  0
 16 17  1  0  0  0
 17 18  2  0  0  0
 16 19  1  0  0  0
 19 20  3  0  0  0
 29 24  1  0  0  0
  6  1  1  0  0  0
 12  7  1  0  0  0
 18 13  1  0  0  0
M  END
> <minimizedAffinity>
-7.26728

> <CNNscore>
0.2189422995

> <CNNaffinity>
6.0517587662

> <CNN_VS>
1.3249859810

> <CNNaffinity_variance>
0.1155442595

$$$$
[H]c1c([H])c(N2C([H])([H])C([H])([H])N(C3([H])C([H])([H])C([H])([H])N(S(=O)(=O)c4c([H])c([H])c(OC([H])([H])[H])c([H])c4[H])C([H])([H])C3([H])[H])C([H])([H])C2([H])[H])c([H])c([H])c1C#N


 31 34  0  0  0  0  0  0  0  0999 V2000
  -87.0014   27.6687    1.1578 N   0  0  0  0  0  0  0  0  0  0  0  0
  -86.8673   27.5873   -0.2357 C   0  0  0  0  0  0  0  0  0  0  0  0
  -87.9425   26.7943   -0.9343 C   0  0  0  0  0  0  0  0  0  0  0  0
  -89.2822   27.2398   -0.4065 C   0  0  0  0  0  0  0  0  0  0  0  0
  -89.3183   26.8683    1.0597 C   0  0  0  0  0  0  0  0  0  0  0  0
  -88.2756   27.7249    1.7436 C   0  0  0  0  0  0  0  0  0  0  0  0
  -90.3965   26.7160   -1.0627 N   0  0  0  0  0  0  0  0  0  0  0  0
  -90.2684   26.1659   -2.3532 C   0  0  0  0  0  0  0  0  0  0  0  0
  -90.9406   24.8031   -2.3679 C   0  0  0  0  0  0  0  0  0  0  0  0
  -92.2137   24.9653   -1.6292 N   0  0  0  0  0  0  0  0  0  0  0  0
  -92.6765   26.3311   -1.5604 C   0  0  0  0  0  0  0  0  0  0  0  0
  -91.6948   27.0524   -0.6207 C   0  0  0  0  0  0  0  0  0  0  0  0
  -92.8763   23.8762   -1.0727 C   0  0  0  0  0  0  0  0  0  0  0  0
  -93.9260   24.0734   -0.1908 C   0  0  0  0  0  0  0  0  0  0  0  0
  -94.6182   23.0429    0.3851 C   0  0  0  0  0  0  0  0  0  0  0  0
  -94.2875   21.7554    0.1014 C   0  0  0  0  0  0  0  0  0  0  0  0
  -93.2535   21.5215   -0.7676 C   0  0  0  0  0  0  0  0  0  0  0  0
  -92.5471   22.5801   -1.3555 C   0  0  0  0  0  0  0  0  0  0  0  0
  -95.0332   20.6798    0.7226 C   0  0  0  0  0  0  0  0  0  0  0  0
  -95.6415   19.8269    1.2255 N   0  0  0  0  0  0  0  0  0  0  0  0
  -85.6673   28.1148    2.0751 S   0  0  0  0  0  0  0  0  0  0  0  0
  -86.1205   28.5310    3.4456 O   0  0  0  0  0  0  0  0  0  0  0  0
  -84.6410   27.0301    2.2369 O   0  0  0  0  0  0  0  0  0  0  0  0
  -83.7612   31.8030    0.1645 C   0  0  0  0  0  0  0  0  0  0  0  0
  -85.1302   31.6241    0.2058 C   0  0  0  0  0  0  0  0  0  0  0  0
  -85.7123   30.5327    0.7700 C   0  0  0  0  0  0  0  0  0  0  0  0
  -84.9371   29.5454    1.3327 C   0  0  0  0  0  0  0  0  0  0  0  0
  -83.5670   29.7028    1.3030 C   0  0  0  0  0  0  0  0  0  0  0  0
  -82.9853   30.8204    0.7248 C   0  0  0  0  0  0  0  0  0  0  0  0
  -84.0050   33.9582   -0.9336 C   0  0  0  0  0  0  0  0  0  0  0  0
  -83.1832   32.9313   -0.4199 O   0  0  0  0  0  0  0  0  0  0  0  0
 30 31  1  0  0  0
 31 24  1  0  0  0
 24 25  2  0  0  0
 25 26  1  0  0  0
 26 27  2  0  0  0
 27 28  1  0  0  0
 28 29  2  0  0  0
 27 21  1  0  0  0
 21 22  2  0  0  0
 21 23  2  0  0  0
 21  1  1  0  0  0
  1  2  1  0  0  0
  2  3  1  0  0  0
  3  4  1  0  0  0
  4  5  1  0  0  0
  5  6  1  0  0  0
  4  7  1  0  0  0
  7  8  1  0  0  0
  8  9  1  0  0  0
  9 10  1  0  0  0
 10 11  1  0  0  0
 11 12  1  0  0  0
 10 13  1  0  0  0
 13 14  2  0  0  0
 14 15  1  0  0  0
 15 16  2  0  0  0
 16 17  1  0  0  0
 17 18  2  0  0  0
 16 19  1  0  0  0
 19 20  3  0  0  0
 29 24  1  0  0  0
  6  1  1  0  0  0
 12  7  1  0  0  0
 18 13  1  0  0  0
M  END
> <minimizedAffinity>
-6.58131

> <CNNscore>
0.1994791329

> <CNNaffinity>
6.0308775902

> <CNN_VS>
1.2030342817

> <CNNaffinity_variance>
0.0403328538

$$$$
[H]c1c([H])c(N2C([H])([H])C([H])([H])N(C3([H])C([H])([H])C([H])([H])N(S(=O)(=O)c4c([H])c([H])c(OC([H])([H])[H])c([H])c4[H])C([H])([H])C3([H])[H])C([H])([H])C2([H])[H])c([H])c([H])c1C#N


 31 34  0  0  0  0  0  0  0  0999 V2000
  -90.5250   25.1671    1.6629 N   0  0  0  0  0  0  0  0  0  0  0  0
  -91.5744   26.0921    1.5656 C   0  0  0  0  0  0  0  0  0  0  0  0
  -91.1987   27.4210    0.9605 C   0  0  0  0  0  0  0  0  0  0  0  0
  -90.4010   27.1655   -0.2926 C   0  0  0  0  0  0  0  0  0  0  0  0
  -89.1227   26.4797    0.1369 C   0  0  0  0  0  0  0  0  0  0  0  0
  -89.5251   25.1258    0.6788 C   0  0  0  0  0  0  0  0  0  0  0  0
  -90.1073   28.2906   -1.0637 N   0  0  0  0  0  0  0  0  0  0  0  0
  -90.9624   29.4099   -1.0429 C   0  0  0  0  0  0  0  0  0  0  0  0
  -90.1234   30.6563   -0.8145 C   0  0  0  0  0  0  0  0  0  0  0  0
  -88.9271   30.5091   -1.6746 N   0  0  0  0  0  0  0  0  0  0  0  0
  -89.1084   29.5874   -2.7709 C   0  0  0  0  0  0  0  0  0  0  0  0
  -89.1846   28.1917   -2.1281 C   0  0  0  0  0  0  0  0  0  0  0  0
  -87.7565   31.2164   -1.4206 C   0  0  0  0  0  0  0  0  0  0  0  0
  -86.8632   30.7675   -0.4619 C   0  0  0  0  0  0  0  0  0  0  0  0
  -85.6946   31.4173   -0.1708 C   0  0  0  0  0  0  0  0  0  0  0  0
  -85.3641   32.5574   -0.8328 C   0  0  0  0  0  0  0  0  0  0  0  0
  -86.2242   33.0319   -1.7889 C   0  0  0  0  0  0  0  0  0  0  0  0
  -87.4203   32.3629   -2.0842 C   0  0  0  0  0  0  0  0  0  0  0  0
  -84.1223   33.2294   -0.5085 C   0  0  0  0  0  0  0  0  0  0  0  0
  -83.1226   33.7686   -0.2627 N   0  0  0  0  0  0  0  0  0  0  0  0
  -90.6912   23.8605    2.7047 S   0  0  0  0  0  0  0  0  0  0  0  0
  -89.3495   23.5077    3.2809 O   0  0  0  0  0  0  0  0  0  0  0  0
  -91.6365   24.1004    3.8470 O   0  0  0  0  0  0  0  0  0  0  0  0
  -92.0263   20.2303    0.2704 C   0  0  0  0  0  0  0  0  0  0  0  0
  -92.5724   21.4840    0.0758 C   0  0  0  0  0  0  0  0  0  0  0  0
  -92.1864   22.5733    0.7918 C   0  0  0  0  0  0  0  0  0  0  0  0
  -91.2143   22.4598    1.7585 C   0  0  0  0  0  0  0  0  0  0  0  0
  -90.6545   21.2169    1.9702 C   0  0  0  0  0  0  0  0  0  0  0  0
  -91.0567   20.1137    1.2335 C   0  0  0  0  0  0  0  0  0  0  0  0
  -93.7275   19.0999   -1.0480 C   0  0  0  0  0  0  0  0  0  0  0  0
  -92.4369   19.1243   -0.4757 O   0  0  0  0  0  0  0  0  0  0  0  0
 30 31  1  0  0  0
 31 24  1  0  0  0
 24 25  2  0  0  0
 25 26  1  0  0  0
 26 27  2  0  0  0
 27 28  1  0  0  0
 28 29  2  0  0  0
 27 21  1  0  0  0
 21 22  2  0  0  0
 21 23  2  0  0  0
 21  1  1  0  0  0
  1  2  1  0  0  0
  2  3  1  0  0  0
  3  4  1  0  0  0
  4  5  1  0  0  0
  5  6  1  0  0  0
  4  7  1  0  0  0
  7  8  1  0  0  0
  8  9  1  0  0  0
  9 10  1  0  0  0
 10 11  1  0  0  0
 11 12  1  0  0  0
 10 13  1  0  0  0
 13 14  2  0  0  0
 14 15  1  0  0  0
 15 16  2  0  0  0
 16 17  1  0  0  0
 17 18  2  0  0  0
 16 19  1  0  0  0
 19 20  3  0  0  0
 29 24  1  0  0  0
  6  1  1  0  0  0
 12  7  1  0  0  0
 18 13  1  0  0  0
M  END
> <minimizedAffinity>
-6.40649

> <CNNscore>
0.1375716031

> <CNNaffinity>
5.7519378662

> <CNN_VS>
0.7913033366

> <CNNaffinity_variance>
0.5601202846

$$$$
[H]c1c([H])c(N2C([H])([H])C([H])([H])N(C3([H])C([H])([H])C([H])([H])N(S(=O)(=O)c4c([H])c([H])c(OC([H])([H])[H])c([H])c4[H])C([H])([H])C3([H])[H])C([H])([H])C2([H])[H])c([H])c([H])c1C#N


 31 34  0  0  0  0  0  0  0  0999 V2000
  -88.6583   28.0166    0.0517 N   0  0  0  0  0  0  0  0  0  0  0  0
  -88.4383   27.8561   -1.3239 C   0  0  0  0  0  0  0  0  0  0  0  0
  -89.6862   27.8222   -2.1693 C   0  0  0  0  0  0  0  0  0  0  0  0
  -90.5749   28.9664   -1.7533 C   0  0  0  0  0  0  0  0  0  0  0  0
  -90.9842   28.7016   -0.3210 C   0  0  0  0  0  0  0  0  0  0  0  0
  -89.7244   28.8060    0.5100 C   0  0  0  0  0  0  0  0  0  0  0  0
  -91.7043   29.1753   -2.5453 N   0  0  0  0  0  0  0  0  0  0  0  0
  -91.6751   30.1191   -3.5907 C   0  0  0  0  0  0  0  0  0  0  0  0
  -92.2166   29.4639   -4.8503 C   0  0  0  0  0  0  0  0  0  0  0  0
  -93.4061   28.6882   -4.4307 N   0  0  0  0  0  0  0  0  0  0  0  0
  -93.9813   29.1340   -3.1838 C   0  0  0  0  0  0  0  0  0  0  0  0
  -92.9687   28.7349   -2.0964 C   0  0  0  0  0  0  0  0  0  0  0  0
  -93.8978   27.6373   -5.1982 C   0  0  0  0  0  0  0  0  0  0  0  0
  -93.4963   26.3369   -4.9408 C   0  0  0  0  0  0  0  0  0  0  0  0
  -93.9479   25.2625   -5.6580 C   0  0  0  0  0  0  0  0  0  0  0  0
  -94.8308   25.4432   -6.6755 C   0  0  0  0  0  0  0  0  0  0  0  0
  -95.2508   26.7167   -6.9593 C   0  0  0  0  0  0  0  0  0  0  0  0
  -94.7857   27.8146   -6.2219 C   0  0  0  0  0  0  0  0  0  0  0  0
  -95.2956   24.2918   -7.4219 C   0  0  0  0  0  0  0  0  0  0  0  0
  -95.6711   23.3770   -8.0323 N   0  0  0  0  0  0  0  0  0  0  0  0
  -87.4252   27.6205    1.1207 S   0  0  0  0  0  0  0  0  0  0  0  0
  -87.9435   27.6909    2.5289 O   0  0  0  0  0  0  0  0  0  0  0  0
  -86.8438   26.2516    0.9098 O   0  0  0  0  0  0  0  0  0  0  0  0
  -84.1725   30.8114    0.7680 C   0  0  0  0  0  0  0  0  0  0  0  0
  -83.9841   29.6500    1.4915 C   0  0  0  0  0  0  0  0  0  0  0  0
  -84.9416   28.6917    1.6063 C   0  0  0  0  0  0  0  0  0  0  0  0
  -86.1609   28.8514    0.9897 C   0  0  0  0  0  0  0  0  0  0  0  0
  -86.3716   30.0039    0.2615 C   0  0  0  0  0  0  0  0  0  0  0  0
  -85.3872   30.9737    0.1519 C   0  0  0  0  0  0  0  0  0  0  0  0
  -83.2900   32.8080   -0.3021 C   0  0  0  0  0  0  0  0  0  0  0  0
  -83.1761   31.7833    0.6627 O   0  0  0  0  0  0  0  0  0  0  0  0
 30 31  1  0  0  0
 31 24  1  0  0  0
 24 25  2  0  0  0
 25 26  1  0  0  0
 26 27  2  0  0  0
 27 28  1  0  0  0
 28 29  2  0  0  0
 27 21  1  0  0  0
 21 22  2  0  0  0
 21 23  2  0  0  0
 21  1  1  0  0  0
  1  2  1  0  0  0
  2  3  1  0  0  0
  3  4  1  0  0  0
  4  5  1  0  0  0
  5  6  1  0  0  0
  4  7  1  0  0  0
  7  8  1  0  0  0
  8  9  1  0  0  0
  9 10  1  0  0  0
 10 11  1  0  0  0
 11 12  1  0  0  0
 10 13  1  0  0  0
 13 14  2  0  0  0
 14 15  1  0  0  0
 15 16  2  0  0  0
 16 17  1  0  0  0
 17 18  2  0  0  0
 16 19  1  0  0  0
 19 20  3  0  0  0
 29 24  1  0  0  0
  6  1  1  0  0  0
 12  7  1  0  0  0
 18 13  1  0  0  0
M  END
> <minimizedAffinity>
-7.17902

> <CNNscore>
0.1253678352

> <CNNaffinity>
5.5800285339

> <CNN_VS>
0.6995561123

> <CNNaffinity_variance>
0.0546772853

$$$$
[H]c1c([H])c(N2C([H])([H])C([H])([H])N(C3([H])C([H])([H])C([H])([H])N(S(=O)(=O)c4c([H])c([H])c(OC([H])([H])[H])c([H])c4[H])C([H])([H])C3([H])[H])C([H])([H])C2([H])[H])c([H])c([H])c1C#N


 31 34  0  0  0  0  0  0  0  0999 V2000
  -87.3135   32.2515   -1.3736 N   0  0  0  0  0  0  0  0  0  0  0  0
  -87.4035   31.6413   -2.6330 C   0  0  0  0  0  0  0  0  0  0  0  0
  -88.5569   30.6842   -2.7967 C   0  0  0  0  0  0  0  0  0  0  0  0
  -89.8049   31.3481   -2.2738 C   0  0  0  0  0  0  0  0  0  0  0  0
  -89.5952   31.5637   -0.7910 C   0  0  0  0  0  0  0  0  0  0  0  0
  -88.4779   32.5752   -0.6598 C   0  0  0  0  0  0  0  0  0  0  0  0
  -90.9968   30.6575   -2.4953 N   0  0  0  0  0  0  0  0  0  0  0  0
  -91.6973   30.8186   -3.7068 C   0  0  0  0  0  0  0  0  0  0  0  0
  -92.0331   29.4432   -4.2589 C   0  0  0  0  0  0  0  0  0  0  0  0
  -92.4939   28.6387   -3.1044 N   0  0  0  0  0  0  0  0  0  0  0  0
  -92.9553   29.4317   -1.9896 C   0  0  0  0  0  0  0  0  0  0  0  0
  -91.6956   30.0940   -1.4053 C   0  0  0  0  0  0  0  0  0  0  0  0
  -92.4747   27.2480   -3.1321 C   0  0  0  0  0  0  0  0  0  0  0  0
  -93.5546   26.5446   -3.6395 C   0  0  0  0  0  0  0  0  0  0  0  0
  -93.5924   25.1779   -3.6969 C   0  0  0  0  0  0  0  0  0  0  0  0
  -92.5402   24.4461   -3.2443 C   0  0  0  0  0  0  0  0  0  0  0  0
  -91.4533   25.1082   -2.7351 C   0  0  0  0  0  0  0  0  0  0  0  0
  -91.4187   26.5085   -2.6783 C   0  0  0  0  0  0  0  0  0  0  0  0
  -92.6013   23.0004   -3.3142 C   0  0  0  0  0  0  0  0  0  0  0  0
  -92.6628   21.8417   -3.3783 N   0  0  0  0  0  0  0  0  0  0  0  0
  -85.8609   32.9612   -0.9193 S   0  0  0  0  0  0  0  0  0  0  0  0
  -85.0542   33.2767   -2.1467 O   0  0  0  0  0  0  0  0  0  0  0  0
  -86.0160   34.2292   -0.1292 O   0  0  0  0  0  0  0  0  0  0  0  0
  -83.4695   29.8830    1.4665 C   0  0  0  0  0  0  0  0  0  0  0  0
  -82.8752   30.9946    0.9016 C   0  0  0  0  0  0  0  0  0  0  0  0
  -83.5726   31.9188    0.1890 C   0  0  0  0  0  0  0  0  0  0  0  0
  -84.9277   31.7736    0.0023 C   0  0  0  0  0  0  0  0  0  0  0  0
  -85.5427   30.6707    0.5576 C   0  0  0  0  0  0  0  0  0  0  0  0
  -84.8207   29.7352    1.2823 C   0  0  0  0  0  0  0  0  0  0  0  0
  -83.3719   27.7920    2.7028 C   0  0  0  0  0  0  0  0  0  0  0  0
  -82.7352   28.9454    2.1947 O   0  0  0  0  0  0  0  0  0  0  0  0
 30 31  1  0  0  0
 31 24  1  0  0  0
 24 25  2  0  0  0
 25 26  1  0  0  0
 26 27  2  0  0  0
 27 28  1  0  0  0
 28 29  2  0  0  0
 27 21  1  0  0  0
 21 22  2  0  0  0
 21 23  2  0  0  0
 21  1  1  0  0  0
  1  2  1  0  0  0
  2  3  1  0  0  0
  3  4  1  0  0  0
  4  5  1  0  0  0
  5  6  1  0  0  0
  4  7  1  0  0  0
  7  8  1  0  0  0
  8  9  1  0  0  0
  9 10  1  0  0  0
 10 11  1  0  0  0
 11 12  1  0  0  0
 10 13  1  0  0  0
 13 14  2  0  0  0
 14 15  1  0  0  0
 15 16  2  0  0  0
 16 17  1  0  0  0
 17 18  2  0  0  0
 16 19  1  0  0  0
 19 20  3  0  0  0
 29 24  1  0  0  0
  6  1  1  0  0  0
 12  7  1  0  0  0
 18 13  1  0  0  0
M  END
> <minimizedAffinity>
-7.92885

> <CNNscore>
0.1251580715

> <CNNaffinity>
5.8077878952

> <CNN_VS>
0.7268915176

> <CNNaffinity_variance>
0.0720357820

$$$$
[H]c1c([H])c(N2C([H])([H])C([H])([H])N(C3([H])C([H])([H])C([H])([H])N(S(=O)(=O)c4c([H])c([H])c(OC([H])([H])[H])c([H])c4[H])C([H])([H])C3([H])[H])C([H])([H])C2([H])[H])c([H])c([H])c1C#N


 31 34  0  0  0  0  0  0  0  0999 V2000
  -86.5348   28.9422    0.9270 N   0  0  0  0  0  0  0  0  0  0  0  0
  -86.9533   28.2655    2.0817 C   0  0  0  0  0  0  0  0  0  0  0  0
  -88.2621   27.5288    1.9497 C   0  0  0  0  0  0  0  0  0  0  0  0
  -88.2341   26.7333    0.6697 C   0  0  0  0  0  0  0  0  0  0  0  0
  -88.1547   27.7332   -0.4630 C   0  0  0  0  0  0  0  0  0  0  0  0
  -86.8069   28.4095   -0.3427 C   0  0  0  0  0  0  0  0  0  0  0  0
  -89.3093   25.8666    0.4714 N   0  0  0  0  0  0  0  0  0  0  0  0
  -90.4569   25.9599    1.2831 C   0  0  0  0  0  0  0  0  0  0  0  0
  -91.6835   25.9878    0.3864 C   0  0  0  0  0  0  0  0  0  0  0  0
  -91.4536   24.9614   -0.6559 N   0  0  0  0  0  0  0  0  0  0  0  0
  -90.4860   23.9577   -0.2807 C   0  0  0  0  0  0  0  0  0  0  0  0
  -89.1269   24.6786   -0.2699 C   0  0  0  0  0  0  0  0  0  0  0  0
  -92.1320   24.9919   -1.8699 C   0  0  0  0  0  0  0  0  0  0  0  0
  -92.4616   23.8117   -2.5156 C   0  0  0  0  0  0  0  0  0  0  0  0
  -93.1313   23.7777   -3.7085 C   0  0  0  0  0  0  0  0  0  0  0  0
  -93.5050   24.9352   -4.3151 C   0  0  0  0  0  0  0  0  0  0  0  0
  -93.1957   26.1232   -3.7052 C   0  0  0  0  0  0  0  0  0  0  0  0
  -92.5097   26.1536   -2.4830 C   0  0  0  0  0  0  0  0  0  0  0  0
  -94.2127   24.8761   -5.5778 C   0  0  0  0  0  0  0  0  0  0  0  0
  -94.7683   24.8336   -6.5976 N   0  0  0  0  0  0  0  0  0  0  0  0
  -85.3687   30.1423    1.0694 S   0  0  0  0  0  0  0  0  0  0  0  0
  -85.3765   30.6822    2.4713 O   0  0  0  0  0  0  0  0  0  0  0  0
  -83.9725   29.6839    0.7582 O   0  0  0  0  0  0  0  0  0  0  0  0
  -86.5650   33.6047   -1.6631 C   0  0  0  0  0  0  0  0  0  0  0  0
  -85.2680   33.4363   -1.2191 C   0  0  0  0  0  0  0  0  0  0  0  0
  -84.8964   32.4121   -0.4059 C   0  0  0  0  0  0  0  0  0  0  0  0
  -85.8239   31.4861    0.0122 C   0  0  0  0  0  0  0  0  0  0  0  0
  -87.1258   31.6343   -0.4190 C   0  0  0  0  0  0  0  0  0  0  0  0
  -87.4922   32.6830   -1.2482 C   0  0  0  0  0  0  0  0  0  0  0  0
  -88.2606   34.7878   -2.9421 C   0  0  0  0  0  0  0  0  0  0  0  0
  -86.9260   34.6636   -2.4980 O   0  0  0  0  0  0  0  0  0  0  0  0
 30 31  1  0  0  0
 31 24  1  0  0  0
 24 25  2  0  0  0
 25 26  1  0  0  0
 26 27  2  0  0  0
 27 28  1  0  0  0
 28 29  2  0  0  0
 27 21  1  0  0  0
 21 22  2  0  0  0
 21 23  2  0  0  0
 21  1  1  0  0  0
  1  2  1  0  0  0
  2  3  1  0  0  0
  3  4  1  0  0  0
  4  5  1  0  0  0
  5  6  1  0  0  0
  4  7  1  0  0  0
  7  8  1  0  0  0
  8  9  1  0  0  0
  9 10  1  0  0  0
 10 11  1  0  0  0
 11 12  1  0  0  0
 10 13  1  0  0  0
 13 14  2  0  0  0
 14 15  1  0  0  0
 15 16  2  0  0  0
 16 17  1  0  0  0
 17 18  2  0  0  0
 16 19  1  0  0  0
 19 20  3  0  0  0
 29 24  1  0  0  0
  6  1  1  0  0  0
 12  7  1  0  0  0
 18 13  1  0  0  0
M  END
> <minimizedAffinity>
-7.40888

> <CNNscore>
0.1040226519

> <CNNaffinity>
5.7671022415

> <CNN_VS>
0.5999092460

> <CNNaffinity_variance>
0.1848655790

$$$$
[H]c1c([H])c(N2C([H])([H])C([H])([H])N(C3([H])C([H])([H])C([H])([H])N(S(=O)(=O)c4c([H])c([H])c(OC([H])([H])[H])c([H])c4[H])C([H])([H])C3([H])[H])C([H])([H])C2([H])[H])c([H])c([H])c1C#N


 31 34  0  0  0  0  0  0  0  0999 V2000
  -88.6528   27.3308    0.6495 N   0  0  0  0  0  0  0  0  0  0  0  0
  -88.3186   26.6582   -0.5347 C   0  0  0  0  0  0  0  0  0  0  0  0
  -89.4933   26.2151   -1.3695 C   0  0  0  0  0  0  0  0  0  0  0  0
  -90.4528   27.3709   -1.4933 C   0  0  0  0  0  0  0  0  0  0  0  0
  -90.9649   27.6633   -0.1000 C   0  0  0  0  0  0  0  0  0  0  0  0
  -89.7798   28.1662    0.6943 C   0  0  0  0  0  0  0  0  0  0  0  0
  -91.5225   27.1792   -2.3683 N   0  0  0  0  0  0  0  0  0  0  0  0
  -92.8268   26.9977   -1.8680 C   0  0  0  0  0  0  0  0  0  0  0  0
  -93.7650   27.9356   -2.6094 C   0  0  0  0  0  0  0  0  0  0  0  0
  -93.3776   27.8600   -4.0366 N   0  0  0  0  0  0  0  0  0  0  0  0
  -92.6527   26.6596   -4.3800 C   0  0  0  0  0  0  0  0  0  0  0  0
  -91.2767   26.8019   -3.7067 C   0  0  0  0  0  0  0  0  0  0  0  0
  -93.7063   28.8702   -4.9346 C   0  0  0  0  0  0  0  0  0  0  0  0
  -92.9921   30.0569   -4.9429 C   0  0  0  0  0  0  0  0  0  0  0  0
  -93.2655   31.0844   -5.8044 C   0  0  0  0  0  0  0  0  0  0  0  0
  -94.2764   30.9692   -6.7056 C   0  0  0  0  0  0  0  0  0  0  0  0
  -95.0054   29.8085   -6.7267 C   0  0  0  0  0  0  0  0  0  0  0  0
  -94.7218   28.7583   -5.8424 C   0  0  0  0  0  0  0  0  0  0  0  0
  -94.5489   32.0693   -7.6081 C   0  0  0  0  0  0  0  0  0  0  0  0
  -94.7755   32.9583   -8.3214 N   0  0  0  0  0  0  0  0  0  0  0  0
  -87.4951   27.4660    1.8585 S   0  0  0  0  0  0  0  0  0  0  0  0
  -88.1735   27.7358    3.1713 O   0  0  0  0  0  0  0  0  0  0  0  0
  -86.6337   26.2468    2.0250 O   0  0  0  0  0  0  0  0  0  0  0  0
  -84.9174   31.1267    0.9413 C   0  0  0  0  0  0  0  0  0  0  0  0
  -84.7794   30.4084    2.1131 C   0  0  0  0  0  0  0  0  0  0  0  0
  -85.5386   29.3180    2.4007 C   0  0  0  0  0  0  0  0  0  0  0  0
  -86.4936   28.8828    1.5113 C   0  0  0  0  0  0  0  0  0  0  0  0
  -86.6490   29.5848    0.3341 C   0  0  0  0  0  0  0  0  0  0  0  0
  -85.8686   30.6953    0.0523 C   0  0  0  0  0  0  0  0  0  0  0  0
  -83.0661   32.1456   -0.2608 C   0  0  0  0  0  0  0  0  0  0  0  0
  -84.1276   32.2441    0.6652 O   0  0  0  0  0  0  0  0  0  0  0  0
 30 31  1  0  0  0
 31 24  1  0  0  0
 24 25  2  0  0  0
 25 26  1  0  0  0
 26 27  2  0  0  0
 27 28  1  0  0  0
 28 29  2  0  0  0
 27 21  1  0  0  0
 21 22  2  0  0  0
 21 23  2  0  0  0
 21  1  1  0  0  0
  1  2  1  0  0  0
  2  3  1  0  0  0
  3  4  1  0  0  0
  4  5  1  0  0  0
  5  6  1  0  0  0
  4  7  1  0  0  0
  7  8  1  0  0  0
  8  9  1  0  0  0
  9 10  1  0  0  0
 10 11  1  0  0  0
 11 12  1  0  0  0
 10 13  1  0  0  0
 13 14  2  0  0  0
 14 15  1  0  0  0
 15 16  2  0  0  0
 16 17  1  0  0  0
 17 18  2  0  0  0
 16 19  1  0  0  0
 19 20  3  0  0  0
 29 24  1  0  0  0
  6  1  1  0  0  0
 12  7  1  0  0  0
 18 13  1  0  0  0
M  END
> <minimizedAffinity>
-6.50957

> <CNNscore>
0.0990615487

> <CNNaffinity>
5.7613191605

> <CNN_VS>
0.5707252026

> <CNNaffinity_variance>
0.0383066498

$$$$
[H]c1c([H])c(N2C([H])([H])C([H])([H])N(C3([H])C([H])([H])C([H])([H])N(S(=O)(=O)c4c([H])c([H])c(OC([H])([H])[H])c([H])c4[H])C([H])([H])C3([H])[H])C([H])([H])C2([H])[H])c([H])c([H])c1C#N


 31 34  0  0  0  0  0  0  0  0999 V2000
  -92.4479   26.7094   -2.9794 N   0  0  0  0  0  0  0  0  0  0  0  0
  -91.1150   26.5123   -3.3680 C   0  0  0  0  0  0  0  0  0  0  0  0
  -90.0856   26.9252   -2.3466 C   0  0  0  0  0  0  0  0  0  0  0  0
  -90.4917   26.3653   -1.0075 C   0  0  0  0  0  0  0  0  0  0  0  0
  -91.7988   27.0303   -0.6355 C   0  0  0  0  0  0  0  0  0  0  0  0
  -92.8245   26.5473   -1.6370 C   0  0  0  0  0  0  0  0  0  0  0  0
  -89.5627   26.5218    0.0216 N   0  0  0  0  0  0  0  0  0  0  0  0
  -88.6931   25.4668    0.3611 C   0  0  0  0  0  0  0  0  0  0  0  0
  -87.2757   26.0103    0.4296 C   0  0  0  0  0  0  0  0  0  0  0  0
  -87.3669   27.3065    1.1398 N   0  0  0  0  0  0  0  0  0  0  0  0
  -88.5528   27.4429    1.9518 C   0  0  0  0  0  0  0  0  0  0  0  0
  -89.7209   27.5666    0.9583 C   0  0  0  0  0  0  0  0  0  0  0  0
  -86.3769   28.2758    1.0157 C   0  0  0  0  0  0  0  0  0  0  0  0
  -85.2562   28.2377    1.8287 C   0  0  0  0  0  0  0  0  0  0  0  0
  -84.2481   29.1598    1.7508 C   0  0  0  0  0  0  0  0  0  0  0  0
  -84.3171   30.1721    0.8464 C   0  0  0  0  0  0  0  0  0  0  0  0
  -85.4118   30.2420    0.0245 C   0  0  0  0  0  0  0  0  0  0  0  0
  -86.4423   29.2951    0.1075 C   0  0  0  0  0  0  0  0  0  0  0  0
  -83.2389   31.1376    0.7812 C   0  0  0  0  0  0  0  0  0  0  0  0
  -82.3792   31.9185    0.7412 N   0  0  0  0  0  0  0  0  0  0  0  0
  -93.6420   26.7238   -4.1601 S   0  0  0  0  0  0  0  0  0  0  0  0
  -93.2059   25.8767   -5.3215 O   0  0  0  0  0  0  0  0  0  0  0  0
  -94.9761   26.2161   -3.6925 O   0  0  0  0  0  0  0  0  0  0  0  0
  -94.0291   30.9995   -5.7268 C   0  0  0  0  0  0  0  0  0  0  0  0
  -94.4436   29.9083   -6.4653 C   0  0  0  0  0  0  0  0  0  0  0  0
  -94.3348   28.6307   -6.0135 C   0  0  0  0  0  0  0  0  0  0  0  0
  -93.7947   28.3761   -4.7743 C   0  0  0  0  0  0  0  0  0  0  0  0
  -93.3739   29.4509   -4.0188 C   0  0  0  0  0  0  0  0  0  0  0  0
  -93.4901   30.7492   -4.4906 C   0  0  0  0  0  0  0  0  0  0  0  0
  -93.1081   32.8710   -6.9756 C   0  0  0  0  0  0  0  0  0  0  0  0
  -94.1496   32.3039   -6.2091 O   0  0  0  0  0  0  0  0  0  0  0  0
 30 31  1  0  0  0
 31 24  1  0  0  0
 24 25  2  0  0  0
 25 26  1  0  0  0
 26 27  2  0  0  0
 27 28  1  0  0  0
 28 29  2  0  0  0
 27 21  1  0  0  0
 21 22  2  0  0  0
 21 23  2  0  0  0
 21  1  1  0  0  0
  1  2  1  0  0  0
  2  3  1  0  0  0
  3  4  1  0  0  0
  4  5  1  0  0  0
  5  6  1  0  0  0
  4  7  1  0  0  0
  7  8  1  0  0  0
  8  9  1  0  0  0
  9 10  1  0  0  0
 10 11  1  0  0  0
 11 12  1  0  0  0
 10 13  1  0  0  0
 13 14  2  0  0  0
 14 15  1  0  0  0
 15 16  2  0  0  0
 16 17  1  0  0  0
 17 18  2  0  0  0
 16 19  1  0  0  0
 19 20  3  0  0  0
 29 24  1  0  0  0
  6  1  1  0  0  0
 12  7  1  0  0  0
 18 13  1  0  0  0
M  END
> <minimizedAffinity>
-6.73869

> <CNNscore>
0.0687727779

> <CNNaffinity>
5.5984668732

> <CNN_VS>
0.3850221336

> <CNNaffinity_variance>
0.0783582181

$$$$
[H]c1c([H])c(C(F)(F)F)c([H])c([H])c1C(=O)N([H])[C@]([H])(C(F)(F)F)C([H])([H])C([H])(C([H])([H])[H])C([H])([H])[H]


 23 23  0  0  0  0  0  0  0  0999 V2000
  -87.6406   27.5915    1.7148 N   0  0  0  0  0  0  0  0  0  0  0  0
  -86.2598   27.4882    1.9239 C   0  0  0  0  0  0  0  0  0  0  0  0
  -85.8027   26.4296    2.4219 O   0  0  0  0  0  0  0  0  0  0  0  0
  -88.1274   28.4028    1.3201 H   0  0  0  0  0  0  0  0  0  0  0  0
  -85.3279   28.5554    1.5865 C   0  0  0  0  0  0  0  0  0  0  0  0
  -84.0920   28.7178    2.1487 C   0  0  0  0  0  0  0  0  0  0  0  0
  -83.2518   29.7793    1.7920 C   0  0  0  0  0  0  0  0  0  0  0  0
  -83.6613   30.6971    0.8510 C   0  0  0  0  0  0  0  0  0  0  0  0
  -84.9044   30.5339    0.2852 C   0  0  0  0  0  0  0  0  0  0  0  0
  -85.7413   29.4765    0.6393 C   0  0  0  0  0  0  0  0  0  0  0  0
  -82.8034   31.8340    0.4463 C   0  0  0  0  0  0  0  0  0  0  0  0
  -83.0101   32.8636    1.3504 F   0  0  0  0  0  0  0  0  0  0  0  0
  -83.0542   32.2701   -0.8363 F   0  0  0  0  0  0  0  0  0  0  0  0
  -81.4526   31.5214    0.5554 F   0  0  0  0  0  0  0  0  0  0  0  0
  -88.5688   26.4350    2.0799 C   0  0  0  0  0  0  0  0  0  0  0  0
  -89.1247   26.1272    0.7202 C   0  0  0  0  0  0  0  0  0  0  0  0
  -90.4511   26.0384    0.5331 F   0  0  0  0  0  0  0  0  0  0  0  0
  -88.6892   27.2036   -0.0955 F   0  0  0  0  0  0  0  0  0  0  0  0
  -88.4758   24.9841    0.1967 F   0  0  0  0  0  0  0  0  0  0  0  0
  -89.5374   26.9319    3.0549 C   0  0  0  0  0  0  0  0  0  0  0  0
  -89.1428   24.9496    4.3610 C   0  0  0  0  0  0  0  0  0  0  0  0
  -89.9675   26.2913    4.2638 C   0  0  0  0  0  0  0  0  0  0  0  0
  -89.9421   26.8500    5.6175 C   0  0  0  0  0  0  0  0  0  0  0  0
 21 22  1  0  0  0
 22 23  1  0  0  0
 22 20  1  0  0  0
 20 15  1  0  0  0
 15  1  1  0  0  0
  1  2  1  0  0  0
  2  3  2  0  0  0
  2  5  1  0  0  0
  5  6  2  0  0  0
  6  7  1  0  0  0
  7  8  2  0  0  0
  8  9  1  0  0  0
  9 10  2  0  0  0
  8 11  1  0  0  0
 11 12  1  0  0  0
 11 13  1  0  0  0
 11 14  1  0  0  0
 15 16  1  0  0  0
 16 17  1  0  0  0
 16 18  1  0  0  0
 16 19  1  0  0  0
 10  5  1  0  0  0
  1  4  1  0  0  0
M  END
> <minimizedAffinity>
-7.66190

> <CNNscore>
0.4683827162

> <CNNaffinity>
5.5435752869

> <CNN_VS>
2.5965149403

> <CNNaffinity_variance>
0.3154560328

$$$$
[H]c1c([H])c(C(F)(F)F)c([H])c([H])c1C(=O)N([H])[C@]([H])(C(F)(F)F)C([H])([H])C([H])(C([H])([H])[H])C([H])([H])[H]


 23 23  0  0  0  0  0  0  0  0999 V2000
  -87.9995   34.2444   -2.8786 N   0  0  0  0  0  0  0  0  0  0  0  0
  -88.1160   33.3553   -1.8029 C   0  0  0  0  0  0  0  0  0  0  0  0
  -89.2639   33.0139   -1.4242 O   0  0  0  0  0  0  0  0  0  0  0  0
  -87.1207   34.5955   -3.2727 H   0  0  0  0  0  0  0  0  0  0  0  0
  -86.9624   32.8060   -1.1039 C   0  0  0  0  0  0  0  0  0  0  0  0
  -85.7306   33.3972   -1.0480 C   0  0  0  0  0  0  0  0  0  0  0  0
  -84.6567   32.8046   -0.3733 C   0  0  0  0  0  0  0  0  0  0  0  0
  -84.8231   31.5926    0.2585 C   0  0  0  0  0  0  0  0  0  0  0  0
  -86.0621   30.9978    0.2026 C   0  0  0  0  0  0  0  0  0  0  0  0
  -87.1323   31.5879   -0.4685 C   0  0  0  0  0  0  0  0  0  0  0  0
  -83.7130   30.9323    0.9824 C   0  0  0  0  0  0  0  0  0  0  0  0
  -82.5250   31.3315    0.3913 F   0  0  0  0  0  0  0  0  0  0  0  0
  -83.8075   29.5578    0.9782 F   0  0  0  0  0  0  0  0  0  0  0  0
  -83.6276   31.3699    2.2998 F   0  0  0  0  0  0  0  0  0  0  0  0
  -89.2458   34.7809   -3.5796 C   0  0  0  0  0  0  0  0  0  0  0  0
  -89.1413   34.0306   -4.8752 C   0  0  0  0  0  0  0  0  0  0  0  0
  -89.5453   34.5981   -6.0229 F   0  0  0  0  0  0  0  0  0  0  0  0
  -87.7531   33.7823   -5.0331 F   0  0  0  0  0  0  0  0  0  0  0  0
  -89.7281   32.7520   -4.7247 F   0  0  0  0  0  0  0  0  0  0  0  0
  -89.1086   36.2322   -3.6832 C   0  0  0  0  0  0  0  0  0  0  0  0
  -87.1093   37.0858   -4.7151 C   0  0  0  0  0  0  0  0  0  0  0  0
  -87.9515   37.0241   -3.3823 C   0  0  0  0  0  0  0  0  0  0  0  0
  -87.9283   38.3910   -2.8565 C   0  0  0  0  0  0  0  0  0  0  0  0
 21 22  1  0  0  0
 22 23  1  0  0  0
 22 20  1  0  0  0
 20 15  1  0  0  0
 15  1  1  0  0  0
  1  2  1  0  0  0
  2  3  2  0  0  0
  2  5  1  0  0  0
  5  6  2  0  0  0
  6  7  1  0  0  0
  7  8  2  0  0  0
  8  9  1  0  0  0
  9 10  2  0  0  0
  8 11  1  0  0  0
 11 12  1  0  0  0
 11 13  1  0  0  0
 11 14  1  0  0  0
 15 16  1  0  0  0
 16 17  1  0  0  0
 16 18  1  0  0  0
 16 19  1  0  0  0
 10  5  1  0  0  0
  1  4  1  0  0  0
M  END
> <minimizedAffinity>
-7.28223

> <CNNscore>
0.4397701323

> <CNNaffinity>
4.9417834282

> <CNN_VS>
2.1732487679

> <CNNaffinity_variance>
0.4670005739

$$$$
[H]c1c([H])c(C(F)(F)F)c([H])c([H])c1C(=O)N([H])[C@]([H])(C(F)(F)F)C([H])([H])C([H])(C([H])([H])[H])C([H])([H])[H]


 23 23  0  0  0  0  0  0  0  0999 V2000
  -88.5426   27.5251    2.7902 N   0  0  0  0  0  0  0  0  0  0  0  0
  -87.9348   27.8739    1.5777 C   0  0  0  0  0  0  0  0  0  0  0  0
  -88.5228   27.5906    0.5047 O   0  0  0  0  0  0  0  0  0  0  0  0
  -88.1591   27.7007    3.7245 H   0  0  0  0  0  0  0  0  0  0  0  0
  -86.6491   28.5544    1.5059 C   0  0  0  0  0  0  0  0  0  0  0  0
  -85.6540   28.4409    2.4371 C   0  0  0  0  0  0  0  0  0  0  0  0
  -84.4467   29.1394    2.3169 C   0  0  0  0  0  0  0  0  0  0  0  0
  -84.2342   29.9694    1.2392 C   0  0  0  0  0  0  0  0  0  0  0  0
  -85.2349   30.0836    0.3023 C   0  0  0  0  0  0  0  0  0  0  0  0
  -86.4371   29.3876    0.4209 C   0  0  0  0  0  0  0  0  0  0  0  0
  -82.9720   30.7260    1.0752 C   0  0  0  0  0  0  0  0  0  0  0  0
  -81.9649   30.0111    1.7036 F   0  0  0  0  0  0  0  0  0  0  0  0
  -83.0379   32.0037    1.5864 F   0  0  0  0  0  0  0  0  0  0  0  0
  -82.5870   30.7983   -0.2592 F   0  0  0  0  0  0  0  0  0  0  0  0
  -89.8974   26.8201    2.8038 C   0  0  0  0  0  0  0  0  0  0  0  0
  -90.5446   27.5535    3.9421 C   0  0  0  0  0  0  0  0  0  0  0  0
  -89.8034   28.2934    4.7820 F   0  0  0  0  0  0  0  0  0  0  0  0
  -91.4436   28.4577    3.3192 F   0  0  0  0  0  0  0  0  0  0  0  0
  -91.3670   26.6597    4.6679 F   0  0  0  0  0  0  0  0  0  0  0  0
  -89.6567   25.3968    3.0315 C   0  0  0  0  0  0  0  0  0  0  0  0
  -90.7725   23.3318    3.5621 C   0  0  0  0  0  0  0  0  0  0  0  0
  -90.3077   24.2880    2.3963 C   0  0  0  0  0  0  0  0  0  0  0  0
  -91.4444   24.3406    1.4740 C   0  0  0  0  0  0  0  0  0  0  0  0
 21 22  1  0  0  0
 22 23  1  0  0  0
 22 20  1  0  0  0
 20 15  1  0  0  0
 15  1  1  0  0  0
  1  2  1  0  0  0
  2  3  2  0  0  0
  2  5  1  0  0  0
  5  6  2  0  0  0
  6  7  1  0  0  0
  7  8  2  0  0  0
  8  9  1  0  0  0
  9 10  2  0  0  0
  8 11  1  0  0  0
 11 12  1  0  0  0
 11 13  1  0  0  0
 11 14  1  0  0  0
 15 16  1  0  0  0
 16 17  1  0  0  0
 16 18  1  0  0  0
 16 19  1  0  0  0
 10  5  1  0  0  0
  1  4  1  0  0  0
M  END
> <minimizedAffinity>
-7.86685

> <CNNscore>
0.3519735336

> <CNNaffinity>
5.2198534012

> <CNN_VS>
1.8372502327

> <CNNaffinity_variance>
0.3335592151

$$$$
[H]c1c([H])c(C(F)(F)F)c([H])c([H])c1C(=O)N([H])[C@]([H])(C(F)(F)F)C([H])([H])C([H])(C([H])([H])[H])C([H])([H])[H]


 23 23  0  0  0  0  0  0  0  0999 V2000
  -89.5119   28.4479    1.6381 N   0  0  0  0  0  0  0  0  0  0  0  0
  -89.6035   29.0795    0.3916 C   0  0  0  0  0  0  0  0  0  0  0  0
  -90.5023   28.7132   -0.4056 O   0  0  0  0  0  0  0  0  0  0  0  0
  -88.8217   28.6579    2.3665 H   0  0  0  0  0  0  0  0  0  0  0  0
  -88.7020   30.1463   -0.0213 C   0  0  0  0  0  0  0  0  0  0  0  0
  -89.1020   31.3599   -0.5085 C   0  0  0  0  0  0  0  0  0  0  0  0
  -88.1808   32.3362   -0.9063 C   0  0  0  0  0  0  0  0  0  0  0  0
  -86.8296   32.0886   -0.8132 C   0  0  0  0  0  0  0  0  0  0  0  0
  -86.4271   30.8680   -0.3230 C   0  0  0  0  0  0  0  0  0  0  0  0
  -87.3439   29.8956    0.0741 C   0  0  0  0  0  0  0  0  0  0  0  0
  -85.8231   33.0939   -1.2236 C   0  0  0  0  0  0  0  0  0  0  0  0
  -85.9767   34.2043   -0.4090 F   0  0  0  0  0  0  0  0  0  0  0  0
  -85.9318   33.4574   -2.5481 F   0  0  0  0  0  0  0  0  0  0  0  0
  -84.5270   32.6479   -0.9880 F   0  0  0  0  0  0  0  0  0  0  0  0
  -90.4918   27.3406    2.0202 C   0  0  0  0  0  0  0  0  0  0  0  0
  -90.7562   27.7274    3.4460 C   0  0  0  0  0  0  0  0  0  0  0  0
  -91.3577   26.8668    4.2826 F   0  0  0  0  0  0  0  0  0  0  0  0
  -89.4699   27.9670    3.9953 F   0  0  0  0  0  0  0  0  0  0  0  0
  -91.4085   28.9825    3.4776 F   0  0  0  0  0  0  0  0  0  0  0  0
  -89.8120   26.0604    1.8339 C   0  0  0  0  0  0  0  0  0  0  0  0
  -90.7829   24.0268    2.6784 C   0  0  0  0  0  0  0  0  0  0  0  0
  -90.3828   24.8262    1.3782 C   0  0  0  0  0  0  0  0  0  0  0  0
  -91.5181   24.6604    0.4677 C   0  0  0  0  0  0  0  0  0  0  0  0
 21 22  1  0  0  0
 22 23  1  0  0  0
 22 20  1  0  0  0
 20 15  1  0  0  0
 15  1  1  0  0  0
  1  2  1  0  0  0
  2  3  2  0  0  0
  2  5  1  0  0  0
  5  6  2  0  0  0
  6  7  1  0  0  0
  7  8  2  0  0  0
  8  9  1  0  0  0
  9 10  2  0  0  0
  8 11  1  0  0  0
 11 12  1  0  0  0
 11 13  1  0  0  0
 11 14  1  0  0  0
 15 16  1  0  0  0
 16 17  1  0  0  0
 16 18  1  0  0  0
 16 19  1  0  0  0
 10  5  1  0  0  0
  1  4  1  0  0  0
M  END
> <minimizedAffinity>
-6.41840

> <CNNscore>
0.3379639685

> <CNNaffinity>
5.0780906677

> <CNN_VS>
1.7162116766

> <CNNaffinity_variance>
0.2549924552

$$$$
[H]c1c([H])c(C(F)(F)F)c([H])c([H])c1C(=O)N([H])[C@]([H])(C(F)(F)F)C([H])([H])C([H])(C([H])([H])[H])C([H])([H])[H]


 23 23  0  0  0  0  0  0  0  0999 V2000
  -86.9298   32.5755   -2.3640 N   0  0  0  0  0  0  0  0  0  0  0  0
  -87.3179   32.2242   -1.0651 C   0  0  0  0  0  0  0  0  0  0  0  0
  -88.4385   32.6066   -0.6462 O   0  0  0  0  0  0  0  0  0  0  0  0
  -86.0424   32.3252   -2.8121 H   0  0  0  0  0  0  0  0  0  0  0  0
  -86.4786   31.4314   -0.1772 C   0  0  0  0  0  0  0  0  0  0  0  0
  -85.3331   31.8805    0.4196 C   0  0  0  0  0  0  0  0  0  0  0  0
  -84.5608   31.0582    1.2488 C   0  0  0  0  0  0  0  0  0  0  0  0
  -84.9469   29.7576    1.4834 C   0  0  0  0  0  0  0  0  0  0  0  0
  -86.0991   29.3057    0.8832 C   0  0  0  0  0  0  0  0  0  0  0  0
  -86.8691   30.1243    0.0581 C   0  0  0  0  0  0  0  0  0  0  0  0
  -84.1582   28.8556    2.3532 C   0  0  0  0  0  0  0  0  0  0  0  0
  -84.6508   28.9733    3.6430 F   0  0  0  0  0  0  0  0  0  0  0  0
  -82.8082   29.1300    2.3331 F   0  0  0  0  0  0  0  0  0  0  0  0
  -84.3475   27.5203    2.0132 F   0  0  0  0  0  0  0  0  0  0  0  0
  -87.8566   33.4015   -3.2535 C   0  0  0  0  0  0  0  0  0  0  0  0
  -88.1496   32.3829   -4.3161 C   0  0  0  0  0  0  0  0  0  0  0  0
  -87.1790   31.5708   -4.7642 F   0  0  0  0  0  0  0  0  0  0  0  0
  -89.1286   31.5343   -3.7370 F   0  0  0  0  0  0  0  0  0  0  0  0
  -88.8048   33.0125   -5.4006 F   0  0  0  0  0  0  0  0  0  0  0  0
  -87.1132   34.5774   -3.7008 C   0  0  0  0  0  0  0  0  0  0  0  0
  -87.4374   36.1085   -5.5288 C   0  0  0  0  0  0  0  0  0  0  0  0
  -87.6318   35.8852   -3.9790 C   0  0  0  0  0  0  0  0  0  0  0  0
  -88.9798   36.3811   -3.6914 C   0  0  0  0  0  0  0  0  0  0  0  0
 21 22  1  0  0  0
 22 23  1  0  0  0
 22 20  1  0  0  0
 20 15  1  0  0  0
 15  1  1  0  0  0
  1  2  1  0  0  0
  2  3  2  0  0  0
  2  5  1  0  0  0
  5  6  2  0  0  0
  6  7  1  0  0  0
  7  8  2  0  0  0
  8  9  1  0  0  0
  9 10  2  0  0  0
  8 11  1  0  0  0
 11 12  1  0  0  0
 11 13  1  0  0  0
 11 14  1  0  0  0
 15 16  1  0  0  0
 16 17  1  0  0  0
 16 18  1  0  0  0
 16 19  1  0  0  0
 10  5  1  0  0  0
  1  4  1  0  0  0
M  END
> <minimizedAffinity>
-7.65246

> <CNNscore>
0.3233889043

> <CNNaffinity>
4.9797849655

> <CNN_VS>
1.6104072332

> <CNNaffinity_variance>
0.4871524274

$$$$
[H]c1c([H])c(C(F)(F)F)c([H])c([H])c1C(=O)N([H])[C@]([H])(C(F)(F)F)C([H])([H])C([H])(C([H])([H])[H])C([H])([H])[H]


 23 23  0  0  0  0  0  0  0  0999 V2000
  -88.7135   27.4916    2.6230 N   0  0  0  0  0  0  0  0  0  0  0  0
  -88.1200   27.8147    1.3964 C   0  0  0  0  0  0  0  0  0  0  0  0
  -88.7024   27.4755    0.3366 O   0  0  0  0  0  0  0  0  0  0  0  0
  -88.3328   27.7121    3.5489 H   0  0  0  0  0  0  0  0  0  0  0  0
  -86.8556   28.5304    1.2952 C   0  0  0  0  0  0  0  0  0  0  0  0
  -86.4071   29.1653    0.1701 C   0  0  0  0  0  0  0  0  0  0  0  0
  -85.1701   29.8199    0.1346 C   0  0  0  0  0  0  0  0  0  0  0  0
  -84.3664   29.8371    1.2523 C   0  0  0  0  0  0  0  0  0  0  0  0
  -84.8173   29.1987    2.3842 C   0  0  0  0  0  0  0  0  0  0  0  0
  -86.0495   28.5473    2.4205 C   0  0  0  0  0  0  0  0  0  0  0  0
  -83.0514   30.5176    1.2561 C   0  0  0  0  0  0  0  0  0  0  0  0
  -82.1460   29.6863    1.8960 F   0  0  0  0  0  0  0  0  0  0  0  0
  -83.0826   31.7497    1.8719 F   0  0  0  0  0  0  0  0  0  0  0  0
  -82.5515   30.6749   -0.0321 F   0  0  0  0  0  0  0  0  0  0  0  0
  -90.0464   26.7473    2.6672 C   0  0  0  0  0  0  0  0  0  0  0  0
  -90.6590   27.4113    3.8657 C   0  0  0  0  0  0  0  0  0  0  0  0
  -91.4586   26.7176    4.6915 F   0  0  0  0  0  0  0  0  0  0  0  0
  -89.5511   27.8208    4.6522 F   0  0  0  0  0  0  0  0  0  0  0  0
  -91.2887   28.6131    3.4647 F   0  0  0  0  0  0  0  0  0  0  0  0
  -89.7565   25.3231    2.8197 C   0  0  0  0  0  0  0  0  0  0  0  0
  -90.4103   23.1593    3.6452 C   0  0  0  0  0  0  0  0  0  0  0  0
  -89.7758   24.5521    4.0288 C   0  0  0  0  0  0  0  0  0  0  0  0
  -88.6346   24.2247    4.8866 C   0  0  0  0  0  0  0  0  0  0  0  0
 21 22  1  0  0  0
 22 23  1  0  0  0
 22 20  1  0  0  0
 20 15  1  0  0  0
 15  1  1  0  0  0
  1  2  1  0  0  0
  2  3  2  0  0  0
  2  5  1  0  0  0
  5  6  2  0  0  0
  6  7  1  0  0  0
  7  8  2  0  0  0
  8  9  1  0  0  0
  9 10  2  0  0  0
  8 11  1  0  0  0
 11 12  1  0  0  0
 11 13  1  0  0  0
 11 14  1  0  0  0
 15 16  1  0  0  0
 16 17  1  0  0  0
 16 18  1  0  0  0
 16 19  1  0  0  0
 10  5  1  0  0  0
  1  4  1  0  0  0
M  END
> <minimizedAffinity>
-8.21444

> <CNNscore>
0.3230708241

> <CNNaffinity>
5.1639189720

> <CNN_VS>
1.6683115959

> <CNNaffinity_variance>
0.3816970885

$$$$
[H]c1c([H])c(C(F)(F)F)c([H])c([H])c1C(=O)N([H])[C@]([H])(C(F)(F)F)C([H])([H])C([H])(C([H])([H])[H])C([H])([H])[H]


 23 23  0  0  0  0  0  0  0  0999 V2000
  -88.7455   28.2799    0.3401 N   0  0  0  0  0  0  0  0  0  0  0  0
  -88.3792   29.5090   -0.2223 C   0  0  0  0  0  0  0  0  0  0  0  0
  -89.2395   30.1569   -0.8685 O   0  0  0  0  0  0  0  0  0  0  0  0
  -88.1323   27.6634    0.8831 H   0  0  0  0  0  0  0  0  0  0  0  0
  -87.0424   30.0715   -0.0887 C   0  0  0  0  0  0  0  0  0  0  0  0
  -85.9207   29.3516    0.2171 C   0  0  0  0  0  0  0  0  0  0  0  0
  -84.6664   29.9590    0.3497 C   0  0  0  0  0  0  0  0  0  0  0  0
  -84.5357   31.3180    0.1716 C   0  0  0  0  0  0  0  0  0  0  0  0
  -85.6638   32.0424   -0.1361 C   0  0  0  0  0  0  0  0  0  0  0  0
  -86.9132   31.4380   -0.2692 C   0  0  0  0  0  0  0  0  0  0  0  0
  -83.2275   31.9989    0.3033 C   0  0  0  0  0  0  0  0  0  0  0  0
  -83.0329   32.2868    1.6448 F   0  0  0  0  0  0  0  0  0  0  0  0
  -83.1402   33.1508   -0.4475 F   0  0  0  0  0  0  0  0  0  0  0  0
  -82.1748   31.1589   -0.0437 F   0  0  0  0  0  0  0  0  0  0  0  0
  -90.1661   27.7441    0.1748 C   0  0  0  0  0  0  0  0  0  0  0  0
  -90.5710   27.6718    1.6182 C   0  0  0  0  0  0  0  0  0  0  0  0
  -91.0641   26.5323    2.1287 F   0  0  0  0  0  0  0  0  0  0  0  0
  -89.3764   27.9341    2.3377 F   0  0  0  0  0  0  0  0  0  0  0  0
  -91.4268   28.7575    1.9195 F   0  0  0  0  0  0  0  0  0  0  0  0
  -90.0801   26.4597   -0.5169 C   0  0  0  0  0  0  0  0  0  0  0  0
  -91.1455   24.3042   -0.4197 C   0  0  0  0  0  0  0  0  0  0  0  0
  -91.1498   25.7184   -1.1193 C   0  0  0  0  0  0  0  0  0  0  0  0
  -92.5618   26.1021   -1.1884 C   0  0  0  0  0  0  0  0  0  0  0  0
 21 22  1  0  0  0
 22 23  1  0  0  0
 22 20  1  0  0  0
 20 15  1  0  0  0
 15  1  1  0  0  0
  1  2  1  0  0  0
  2  3  2  0  0  0
  2  5  1  0  0  0
  5  6  2  0  0  0
  6  7  1  0  0  0
  7  8  2  0  0  0
  8  9  1  0  0  0
  9 10  2  0  0  0
  8 11  1  0  0  0
 11 12  1  0  0  0
 11 13  1  0  0  0
 11 14  1  0  0  0
 15 16  1  0  0  0
 16 17  1  0  0  0
 16 18  1  0  0  0
 16 19  1  0  0  0
 10  5  1  0  0  0
  1  4  1  0  0  0
M  END
> <minimizedAffinity>
-6.66754

> <CNNscore>
0.3091008961

> <CNNaffinity>
5.3678731918

> <CNN_VS>
1.6592143774

> <CNNaffinity_variance>
0.1155083925

$$$$
[H]c1c([H])c(C(F)(F)F)c([H])c([H])c1C(=O)N([H])[C@]([H])(C(F)(F)F)C([H])([H])C([H])(C([H])([H])[H])C([H])([H])[H]


 23 23  0  0  0  0  0  0  0  0999 V2000
  -85.0808   31.6399   -0.2491 N   0  0  0  0  0  0  0  0  0  0  0  0
  -86.4528   31.6709   -0.5279 C   0  0  0  0  0  0  0  0  0  0  0  0
  -87.2385   31.0638    0.2413 O   0  0  0  0  0  0  0  0  0  0  0  0
  -84.3468   32.0927   -0.8033 H   0  0  0  0  0  0  0  0  0  0  0  0
  -87.0104   32.3794   -1.6717 C   0  0  0  0  0  0  0  0  0  0  0  0
  -87.7409   31.7959   -2.6697 C   0  0  0  0  0  0  0  0  0  0  0  0
  -88.2325   32.5334   -3.7534 C   0  0  0  0  0  0  0  0  0  0  0  0
  -87.9851   33.8852   -3.8369 C   0  0  0  0  0  0  0  0  0  0  0  0
  -87.2504   34.4724   -2.8332 C   0  0  0  0  0  0  0  0  0  0  0  0
  -86.7613   33.7387   -1.7531 C   0  0  0  0  0  0  0  0  0  0  0  0
  -88.4864   34.7008   -4.9663 C   0  0  0  0  0  0  0  0  0  0  0  0
  -89.1438   35.7996   -4.4365 F   0  0  0  0  0  0  0  0  0  0  0  0
  -89.3275   34.0027   -5.8052 F   0  0  0  0  0  0  0  0  0  0  0  0
  -87.4438   35.2304   -5.7192 F   0  0  0  0  0  0  0  0  0  0  0  0
  -84.5544   30.8875    0.9713 C   0  0  0  0  0  0  0  0  0  0  0  0
  -83.1089   31.2851    0.9006 C   0  0  0  0  0  0  0  0  0  0  0  0
  -82.7102   32.4807    1.3634 F   0  0  0  0  0  0  0  0  0  0  0  0
  -82.4337   30.3188    1.6904 F   0  0  0  0  0  0  0  0  0  0  0  0
  -82.6311   31.0822   -0.4156 F   0  0  0  0  0  0  0  0  0  0  0  0
  -84.8238   29.4656    0.7683 C   0  0  0  0  0  0  0  0  0  0  0  0
  -85.3103   29.2878    3.1183 C   0  0  0  0  0  0  0  0  0  0  0  0
  -85.2473   28.5079    1.7482 C   0  0  0  0  0  0  0  0  0  0  0  0
  -86.4646   27.6937    1.7199 C   0  0  0  0  0  0  0  0  0  0  0  0
 21 22  1  0  0  0
 22 23  1  0  0  0
 22 20  1  0  0  0
 20 15  1  0  0  0
 15  1  1  0  0  0
  1  2  1  0  0  0
  2  3  2  0  0  0
  2  5  1  0  0  0
  5  6  2  0  0  0
  6  7  1  0  0  0
  7  8  2  0  0  0
  8  9  1  0  0  0
  9 10  2  0  0  0
  8 11  1  0  0  0
 11 12  1  0  0  0
 11 13  1  0  0  0
 11 14  1  0  0  0
 15 16  1  0  0  0
 16 17  1  0  0  0
 16 18  1  0  0  0
 16 19  1  0  0  0
 10  5  1  0  0  0
  1  4  1  0  0  0
M  END
> <minimizedAffinity>
-7.40097

> <CNNscore>
0.2805700600

> <CNNaffinity>
5.0755681992

> <CNN_VS>
1.4240524769

> <CNNaffinity_variance>
0.6597000360

$$$$
[H]c1c([H])c(C(F)(F)F)c([H])c([H])c1C(=O)N([H])[C@]([H])(C(F)(F)F)C([H])([H])C([H])(C([H])([H])[H])C([H])([H])[H]


 23 23  0  0  0  0  0  0  0  0999 V2000
  -85.3947   31.7505    0.0318 N   0  0  0  0  0  0  0  0  0  0  0  0
  -86.0789   32.8273   -0.5457 C   0  0  0  0  0  0  0  0  0  0  0  0
  -85.8033   33.9917   -0.1638 O   0  0  0  0  0  0  0  0  0  0  0  0
  -85.5350   30.7608   -0.1954 H   0  0  0  0  0  0  0  0  0  0  0  0
  -87.0965   32.6565   -1.5736 C   0  0  0  0  0  0  0  0  0  0  0  0
  -86.8924   32.8487   -2.9120 C   0  0  0  0  0  0  0  0  0  0  0  0
  -87.9215   32.6857   -3.8471 C   0  0  0  0  0  0  0  0  0  0  0  0
  -89.1821   32.3221   -3.4293 C   0  0  0  0  0  0  0  0  0  0  0  0
  -89.3875   32.1285   -2.0831 C   0  0  0  0  0  0  0  0  0  0  0  0
  -88.3629   32.2899   -1.1514 C   0  0  0  0  0  0  0  0  0  0  0  0
  -90.2976   32.1399   -4.3857 C   0  0  0  0  0  0  0  0  0  0  0  0
  -89.9591   32.7920   -5.5607 F   0  0  0  0  0  0  0  0  0  0  0  0
  -91.5005   32.6132   -3.9090 F   0  0  0  0  0  0  0  0  0  0  0  0
  -90.4534   30.8051   -4.7438 F   0  0  0  0  0  0  0  0  0  0  0  0
  -84.3299   31.9915    1.0999 C   0  0  0  0  0  0  0  0  0  0  0  0
  -83.1049   31.9799    0.2328 C   0  0  0  0  0  0  0  0  0  0  0  0
  -82.7487   33.0772   -0.4538 F   0  0  0  0  0  0  0  0  0  0  0  0
  -82.0359   31.7189    1.1287 F   0  0  0  0  0  0  0  0  0  0  0  0
  -83.1484   30.8550   -0.6243 F   0  0  0  0  0  0  0  0  0  0  0  0
  -84.4199   30.9040    2.0719 C   0  0  0  0  0  0  0  0  0  0  0  0
  -83.2704   28.7960    2.2333 C   0  0  0  0  0  0  0  0  0  0  0  0
  -84.6120   29.5079    1.8058 C   0  0  0  0  0  0  0  0  0  0  0  0
  -85.6785   28.6479    2.3240 C   0  0  0  0  0  0  0  0  0  0  0  0
 21 22  1  0  0  0
 22 23  1  0  0  0
 22 20  1  0  0  0
 20 15  1  0  0  0
 15  1  1  0  0  0
  1  2  1  0  0  0
  2  3  2  0  0  0
  2  5  1  0  0  0
  5  6  2  0  0  0
  6  7  1  0  0  0
  7  8  2  0  0  0
  8  9  1  0  0  0
  9 10  2  0  0  0
  8 11  1  0  0  0
 11 12  1  0  0  0
 11 13  1  0  0  0
 11 14  1  0  0  0
 15 16  1  0  0  0
 16 17  1  0  0  0
 16 18  1  0  0  0
 16 19  1  0  0  0
 10  5  1  0  0  0
  1  4  1  0  0  0
M  END
> <minimizedAffinity>
-7.37440

> <CNNscore>
0.2736895978

> <CNNaffinity>
5.0099611282

> <CNN_VS>
1.3711742163

> <CNNaffinity_variance>
0.5440378785

$$$$
[H]O[C@@]1([H])O[C@]1([H])C([H])([H])C([H])([H])C([H])([H])C([H])([H])C([H])([H])C([H])([H])C([H])([H])C([H])([H])C([H])([H])C([H])([H])C([H])([H])C([H])([H])C([H])([H])C([H])([H])c1nc(N([H])[H])nc(N2C([H])([H])C([H])([H])OC([H])([H])C2([H])[H])c1[H]


 34 36  0  0  0  0  0  0  0  0999 V2000
  -86.6375   28.2620    2.4269 C   0  0  0  0  0  0  0  0  0  0  0  0
  -86.4844   26.9356    1.7943 C   0  0  0  0  0  0  0  0  0  0  0  0
  -87.6431   26.4168    1.0196 C   0  0  0  0  0  0  0  0  0  0  0  0
  -87.9321   27.1237   -0.2477 C   0  0  0  0  0  0  0  0  0  0  0  0
  -89.2027   27.9055   -0.2374 C   0  0  0  0  0  0  0  0  0  0  0  0
  -90.3807   27.0041   -0.1921 C   0  0  0  0  0  0  0  0  0  0  0  0
  -91.1981   27.2905    1.0428 C   0  0  0  0  0  0  0  0  0  0  0  0
  -90.9061   28.6682    1.5349 C   0  0  0  0  0  0  0  0  0  0  0  0
  -90.9778   28.6925    3.0566 C   0  0  0  0  0  0  0  0  0  0  0  0
  -90.9212   27.3201    3.6402 C   0  0  0  0  0  0  0  0  0  0  0  0
  -90.0443   27.2742    4.9010 C   0  0  0  0  0  0  0  0  0  0  0  0
  -89.6354   25.8557    5.1033 C   0  0  0  0  0  0  0  0  0  0  0  0
  -89.5463   25.0315    3.8688 C   0  0  0  0  0  0  0  0  0  0  0  0
  -90.2178   23.7167    3.9523 C   0  0  0  0  0  0  0  0  0  0  0  0
  -91.6461   23.6888    3.7963 O   0  0  0  0  0  0  0  0  0  0  0  0
  -90.8585   23.1137    2.7725 C   0  0  0  0  0  0  0  0  0  0  0  0
  -90.9127   21.7118    2.6948 O   0  0  0  0  0  0  0  0  0  0  0  0
  -90.2306   21.4164    2.0508 H   0  0  0  0  0  0  0  0  0  0  0  0
  -85.3885   29.0418    2.6676 C   0  0  0  0  0  0  0  0  0  0  0  0
  -82.6681   32.5656    0.7108 N   0  0  0  0  0  0  0  0  0  0  0  0
  -83.8871   31.7932    0.7462 C   0  0  0  0  0  0  0  0  0  0  0  0
  -84.0272   30.8250    1.6677 N   0  0  0  0  0  0  0  0  0  0  0  0
  -85.1571   30.1215    1.6874 C   0  0  0  0  0  0  0  0  0  0  0  0
  -86.1389   30.4067    0.7689 C   0  0  0  0  0  0  0  0  0  0  0  0
  -86.0093   31.4036   -0.1893 C   0  0  0  0  0  0  0  0  0  0  0  0
  -84.8455   32.0810   -0.1602 N   0  0  0  0  0  0  0  0  0  0  0  0
  -82.3252   32.9440   -0.1778 H   0  0  0  0  0  0  0  0  0  0  0  0
  -82.1469   32.7313    1.5949 H   0  0  0  0  0  0  0  0  0  0  0  0
  -87.0340   31.6883   -1.1339 N   0  0  0  0  0  0  0  0  0  0  0  0
  -87.5750   30.6618   -1.9586 C   0  0  0  0  0  0  0  0  0  0  0  0
  -88.8340   31.0024   -2.6701 C   0  0  0  0  0  0  0  0  0  0  0  0
  -89.2002   32.3271   -2.6265 O   0  0  0  0  0  0  0  0  0  0  0  0
  -89.0128   32.9431   -1.4181 C   0  0  0  0  0  0  0  0  0  0  0  0
  -87.5018   33.0569   -1.2222 C   0  0  0  0  0  0  0  0  0  0  0  0
 20 21  1  0  0  0
 21 22  2  0  0  0
 22 23  1  0  0  0
 23 19  1  0  0  0
 19  1  1  0  0  0
  1  2  1  0  0  0
  2  3  1  0  0  0
  3  4  1  0  0  0
  4  5  1  0  0  0
  5  6  1  0  0  0
  6  7  1  0  0  0
  7  8  1  0  0  0
  8  9  1  0  0  0
  9 10  1  0  0  0
 10 11  1  0  0  0
 11 12  1  0  0  0
 12 13  1  0  0  0
 13 14  1  0  0  0
 14 15  1  0  0  0
 15 16  1  0  0  0
 16 17  1  0  0  0
 23 24  2  0  0  0
 24 25  1  0  0  0
 25 26  2  0  0  0
 25 29  1  0  0  0
 29 30  1  0  0  0
 30 31  1  0  0  0
 31 32  1  0  0  0
 32 33  1  0  0  0
 33 34  1  0  0  0
 26 21  1  0  0  0
 34 29  1  0  0  0
 16 14  1  0  0  0
 20 27  1  0  0  0
 20 28  1  0  0  0
 17 18  1  0  0  0
M  END
> <minimizedAffinity>
-6.76647

> <CNNscore>
0.4935884178

> <CNNaffinity>
6.7892518044

> <CNN_VS>
3.3510961533

> <CNNaffinity_variance>
0.4448579848

$$$$
[H]O[C@@]1([H])O[C@]1([H])C([H])([H])C([H])([H])C([H])([H])C([H])([H])C([H])([H])C([H])([H])C([H])([H])C([H])([H])C([H])([H])C([H])([H])C([H])([H])C([H])([H])C([H])([H])C([H])([H])c1nc(N([H])[H])nc(N2C([H])([H])C([H])([H])OC([H])([H])C2([H])[H])c1[H]


 34 36  0  0  0  0  0  0  0  0999 V2000
  -85.3603   27.6409    1.8656 C   0  0  0  0  0  0  0  0  0  0  0  0
  -86.6465   26.9155    1.8160 C   0  0  0  0  0  0  0  0  0  0  0  0
  -87.0763   26.3887    0.4932 C   0  0  0  0  0  0  0  0  0  0  0  0
  -87.9358   27.2908   -0.3048 C   0  0  0  0  0  0  0  0  0  0  0  0
  -88.8112   28.1828    0.5099 C   0  0  0  0  0  0  0  0  0  0  0  0
  -90.1191   28.3973   -0.1576 C   0  0  0  0  0  0  0  0  0  0  0  0
  -91.2285   28.3564    0.8636 C   0  0  0  0  0  0  0  0  0  0  0  0
  -90.8121   29.0913    2.0932 C   0  0  0  0  0  0  0  0  0  0  0  0
  -91.0674   28.2222    3.3182 C   0  0  0  0  0  0  0  0  0  0  0  0
  -89.8153   27.9577    4.0859 C   0  0  0  0  0  0  0  0  0  0  0  0
  -89.3152   26.5195    3.8801 C   0  0  0  0  0  0  0  0  0  0  0  0
  -89.8872   25.6915    4.9789 C   0  0  0  0  0  0  0  0  0  0  0  0
  -88.9012   25.1367    5.9440 C   0  0  0  0  0  0  0  0  0  0  0  0
  -88.0716   24.0324    5.4158 C   0  0  0  0  0  0  0  0  0  0  0  0
  -86.8832   23.6862    6.1459 O   0  0  0  0  0  0  0  0  0  0  0  0
  -87.9500   22.7581    6.1420 C   0  0  0  0  0  0  0  0  0  0  0  0
  -87.7223   21.5908    5.3938 O   0  0  0  0  0  0  0  0  0  0  0  0
  -88.5674   21.0903    5.3466 H   0  0  0  0  0  0  0  0  0  0  0  0
  -85.3655   28.9769    2.5298 C   0  0  0  0  0  0  0  0  0  0  0  0
  -82.1547   32.1674    0.7525 N   0  0  0  0  0  0  0  0  0  0  0  0
  -83.4859   31.6099    0.7830 C   0  0  0  0  0  0  0  0  0  0  0  0
  -83.7561   30.5950    1.6216 N   0  0  0  0  0  0  0  0  0  0  0  0
  -84.9884   30.0916    1.6379 C   0  0  0  0  0  0  0  0  0  0  0  0
  -85.9396   30.6235    0.8006 C   0  0  0  0  0  0  0  0  0  0  0  0
  -85.6761   31.6719   -0.0714 C   0  0  0  0  0  0  0  0  0  0  0  0
  -84.4131   32.1392   -0.0433 N   0  0  0  0  0  0  0  0  0  0  0  0
  -81.7846   32.5664   -0.1159 H   0  0  0  0  0  0  0  0  0  0  0  0
  -81.5810   32.1581    1.6194 H   0  0  0  0  0  0  0  0  0  0  0  0
  -86.6705   32.2131   -0.9325 N   0  0  0  0  0  0  0  0  0  0  0  0
  -86.5314   33.5194   -1.4810 C   0  0  0  0  0  0  0  0  0  0  0  0
  -87.4555   33.8527   -2.5956 C   0  0  0  0  0  0  0  0  0  0  0  0
  -88.4735   32.9537   -2.8112 O   0  0  0  0  0  0  0  0  0  0  0  0
  -88.1178   31.6357   -2.7053 C   0  0  0  0  0  0  0  0  0  0  0  0
  -87.8234   31.3862   -1.2270 C   0  0  0  0  0  0  0  0  0  0  0  0
 20 21  1  0  0  0
 21 22  2  0  0  0
 22 23  1  0  0  0
 23 19  1  0  0  0
 19  1  1  0  0  0
  1  2  1  0  0  0
  2  3  1  0  0  0
  3  4  1  0  0  0
  4  5  1  0  0  0
  5  6  1  0  0  0
  6  7  1  0  0  0
  7  8  1  0  0  0
  8  9  1  0  0  0
  9 10  1  0  0  0
 10 11  1  0  0  0
 11 12  1  0  0  0
 12 13  1  0  0  0
 13 14  1  0  0  0
 14 15  1  0  0  0
 15 16  1  0  0  0
 16 17  1  0  0  0
 23 24  2  0  0  0
 24 25  1  0  0  0
 25 26  2  0  0  0
 25 29  1  0  0  0
 29 30  1  0  0  0
 30 31  1  0  0  0
 31 32  1  0  0  0
 32 33  1  0  0  0
 33 34  1  0  0  0
 26 21  1  0  0  0
 34 29  1  0  0  0
 16 14  1  0  0  0
 20 27  1  0  0  0
 20 28  1  0  0  0
 17 18  1  0  0  0
M  END
> <minimizedAffinity>
-6.17941

> <CNNscore>
0.4234450758

> <CNNaffinity>
6.9355812073

> <CNN_VS>
2.9368376732

> <CNNaffinity_variance>
0.3199484348

$$$$
[H]O[C@@]1([H])O[C@]1([H])C([H])([H])C([H])([H])C([H])([H])C([H])([H])C([H])([H])C([H])([H])C([H])([H])C([H])([H])C([H])([H])C([H])([H])C([H])([H])C([H])([H])C([H])([H])C([H])([H])c1nc(N([H])[H])nc(N2C([H])([H])C([H])([H])OC([H])([H])C2([H])[H])c1[H]


 34 36  0  0  0  0  0  0  0  0999 V2000
  -86.0565   28.2468    2.4817 C   0  0  0  0  0  0  0  0  0  0  0  0
  -86.3395   26.9939    1.7514 C   0  0  0  0  0  0  0  0  0  0  0  0
  -87.3201   27.0669    0.6356 C   0  0  0  0  0  0  0  0  0  0  0  0
  -88.0029   25.7976    0.3013 C   0  0  0  0  0  0  0  0  0  0  0  0
  -89.4699   25.9342    0.0662 C   0  0  0  0  0  0  0  0  0  0  0  0
  -89.8950   27.3520    0.1721 C   0  0  0  0  0  0  0  0  0  0  0  0
  -91.0265   27.4752    1.1619 C   0  0  0  0  0  0  0  0  0  0  0  0
  -90.5113   28.0097    2.4559 C   0  0  0  0  0  0  0  0  0  0  0  0
  -90.6886   26.9618    3.5476 C   0  0  0  0  0  0  0  0  0  0  0  0
  -89.4303   26.2001    3.8000 C   0  0  0  0  0  0  0  0  0  0  0  0
  -89.6164   24.6957    3.5492 C   0  0  0  0  0  0  0  0  0  0  0  0
  -91.0712   24.4614    3.3279 C   0  0  0  0  0  0  0  0  0  0  0  0
  -91.4083   23.4890    2.2546 C   0  0  0  0  0  0  0  0  0  0  0  0
  -90.2706   22.6731    1.7784 C   0  0  0  0  0  0  0  0  0  0  0  0
  -90.5561   21.3463    1.3059 O   0  0  0  0  0  0  0  0  0  0  0  0
  -90.1375   22.3090    0.3587 C   0  0  0  0  0  0  0  0  0  0  0  0
  -88.8439   22.1168   -0.1552 O   0  0  0  0  0  0  0  0  0  0  0  0
  -88.6081   22.9084   -0.6889 H   0  0  0  0  0  0  0  0  0  0  0  0
  -84.6749   28.7976    2.3645 C   0  0  0  0  0  0  0  0  0  0  0  0
  -82.1682   32.4127    0.2923 N   0  0  0  0  0  0  0  0  0  0  0  0
  -83.4116   31.7153    0.5184 C   0  0  0  0  0  0  0  0  0  0  0  0
  -83.4235   30.6294    1.3103 N   0  0  0  0  0  0  0  0  0  0  0  0
  -84.5780   29.9971    1.5089 C   0  0  0  0  0  0  0  0  0  0  0  0
  -85.7148   30.4730    0.9006 C   0  0  0  0  0  0  0  0  0  0  0  0
  -85.7189   31.5933    0.0799 C   0  0  0  0  0  0  0  0  0  0  0  0
  -84.5227   32.1905   -0.0836 N   0  0  0  0  0  0  0  0  0  0  0  0
  -82.0063   32.8998   -0.5948 H   0  0  0  0  0  0  0  0  0  0  0  0
  -81.4442   32.4135    1.0383 H   0  0  0  0  0  0  0  0  0  0  0  0
  -86.9033   32.0751   -0.5433 N   0  0  0  0  0  0  0  0  0  0  0  0
  -86.9052   33.3060   -1.2586 C   0  0  0  0  0  0  0  0  0  0  0  0
  -88.0918   33.5505   -2.1185 C   0  0  0  0  0  0  0  0  0  0  0  0
  -89.1382   32.6747   -1.9485 O   0  0  0  0  0  0  0  0  0  0  0  0
  -88.7789   31.3634   -1.7868 C   0  0  0  0  0  0  0  0  0  0  0  0
  -88.1002   31.2676   -0.4213 C   0  0  0  0  0  0  0  0  0  0  0  0
 20 21  1  0  0  0
 21 22  2  0  0  0
 22 23  1  0  0  0
 23 19  1  0  0  0
 19  1  1  0  0  0
  1  2  1  0  0  0
  2  3  1  0  0  0
  3  4  1  0  0  0
  4  5  1  0  0  0
  5  6  1  0  0  0
  6  7  1  0  0  0
  7  8  1  0  0  0
  8  9  1  0  0  0
  9 10  1  0  0  0
 10 11  1  0  0  0
 11 12  1  0  0  0
 12 13  1  0  0  0
 13 14  1  0  0  0
 14 15  1  0  0  0
 15 16  1  0  0  0
 16 17  1  0  0  0
 23 24  2  0  0  0
 24 25  1  0  0  0
 25 26  2  0  0  0
 25 29  1  0  0  0
 29 30  1  0  0  0
 30 31  1  0  0  0
 31 32  1  0  0  0
 32 33  1  0  0  0
 33 34  1  0  0  0
 26 21  1  0  0  0
 34 29  1  0  0  0
 16 14  1  0  0  0
 20 27  1  0  0  0
 20 28  1  0  0  0
 17 18  1  0  0  0
M  END
> <minimizedAffinity>
-6.39570

> <CNNscore>
0.3282999396

> <CNNaffinity>
6.7666044235

> <CNN_VS>
2.2214758396

> <CNNaffinity_variance>
0.2247365415

$$$$
[H]O[C@@]1([H])O[C@]1([H])C([H])([H])C([H])([H])C([H])([H])C([H])([H])C([H])([H])C([H])([H])C([H])([H])C([H])([H])C([H])([H])C([H])([H])C([H])([H])C([H])([H])C([H])([H])C([H])([H])c1nc(N([H])[H])nc(N2C([H])([H])C([H])([H])OC([H])([H])C2([H])[H])c1[H]


 34 36  0  0  0  0  0  0  0  0999 V2000
  -86.0472   28.5651    2.3751 C   0  0  0  0  0  0  0  0  0  0  0  0
  -86.6588   27.2950    1.9326 C   0  0  0  0  0  0  0  0  0  0  0  0
  -87.1543   27.2339    0.5316 C   0  0  0  0  0  0  0  0  0  0  0  0
  -88.0758   26.1167    0.2283 C   0  0  0  0  0  0  0  0  0  0  0  0
  -88.9934   25.7577    1.3485 C   0  0  0  0  0  0  0  0  0  0  0  0
  -90.3118   25.3122    0.8332 C   0  0  0  0  0  0  0  0  0  0  0  0
  -90.4163   23.8101    0.9231 C   0  0  0  0  0  0  0  0  0  0  0  0
  -91.5681   23.4338    1.7933 C   0  0  0  0  0  0  0  0  0  0  0  0
  -91.1330   23.4551    3.2532 C   0  0  0  0  0  0  0  0  0  0  0  0
  -90.0596   22.4560    3.5306 C   0  0  0  0  0  0  0  0  0  0  0  0
  -89.1163   22.9302    4.6469 C   0  0  0  0  0  0  0  0  0  0  0  0
  -88.3296   21.7460    5.0930 C   0  0  0  0  0  0  0  0  0  0  0  0
  -87.6321   21.8938    6.3980 C   0  0  0  0  0  0  0  0  0  0  0  0
  -86.9754   23.2025    6.6044 C   0  0  0  0  0  0  0  0  0  0  0  0
  -87.7317   24.2280    7.2688 O   0  0  0  0  0  0  0  0  0  0  0  0
  -86.6262   23.6737    7.9542 C   0  0  0  0  0  0  0  0  0  0  0  0
  -85.5189   24.5280    8.0895 O   0  0  0  0  0  0  0  0  0  0  0  0
  -84.7710   24.0015    8.4508 H   0  0  0  0  0  0  0  0  0  0  0  0
  -84.6654   28.8521    1.8911 C   0  0  0  0  0  0  0  0  0  0  0  0
  -82.0897   32.5971    0.1626 N   0  0  0  0  0  0  0  0  0  0  0  0
  -83.3441   31.8990    0.3141 C   0  0  0  0  0  0  0  0  0  0  0  0
  -83.3790   30.7503    1.0108 N   0  0  0  0  0  0  0  0  0  0  0  0
  -84.5433   30.1184    1.1415 C   0  0  0  0  0  0  0  0  0  0  0  0
  -85.6665   30.6586    0.5624 C   0  0  0  0  0  0  0  0  0  0  0  0
  -85.6469   31.8444   -0.1603 C   0  0  0  0  0  0  0  0  0  0  0  0
  -84.4417   32.4378   -0.2585 N   0  0  0  0  0  0  0  0  0  0  0  0
  -81.9107   33.1554   -0.6780 H   0  0  0  0  0  0  0  0  0  0  0  0
  -81.3754   32.5254    0.9144 H   0  0  0  0  0  0  0  0  0  0  0  0
  -86.8174   32.3925   -0.7543 N   0  0  0  0  0  0  0  0  0  0  0  0
  -86.7362   33.5002   -1.6448 C   0  0  0  0  0  0  0  0  0  0  0  0
  -87.9615   33.7828   -2.4361 C   0  0  0  0  0  0  0  0  0  0  0  0
  -89.0869   33.0911   -2.0543 O   0  0  0  0  0  0  0  0  0  0  0  0
  -88.8791   31.7783   -1.7252 C   0  0  0  0  0  0  0  0  0  0  0  0
  -88.0876   31.7816   -0.4183 C   0  0  0  0  0  0  0  0  0  0  0  0
 20 21  1  0  0  0
 21 22  2  0  0  0
 22 23  1  0  0  0
 23 19  1  0  0  0
 19  1  1  0  0  0
  1  2  1  0  0  0
  2  3  1  0  0  0
  3  4  1  0  0  0
  4  5  1  0  0  0
  5  6  1  0  0  0
  6  7  1  0  0  0
  7  8  1  0  0  0
  8  9  1  0  0  0
  9 10  1  0  0  0
 10 11  1  0  0  0
 11 12  1  0  0  0
 12 13  1  0  0  0
 13 14  1  0  0  0
 14 15  1  0  0  0
 15 16  1  0  0  0
 16 17  1  0  0  0
 23 24  2  0  0  0
 24 25  1  0  0  0
 25 26  2  0  0  0
 25 29  1  0  0  0
 29 30  1  0  0  0
 30 31  1  0  0  0
 31 32  1  0  0  0
 32 33  1  0  0  0
 33 34  1  0  0  0
 26 21  1  0  0  0
 34 29  1  0  0  0
 16 14  1  0  0  0
 20 27  1  0  0  0
 20 28  1  0  0  0
 17 18  1  0  0  0
M  END
> <minimizedAffinity>
-6.70843

> <CNNscore>
0.2688902915

> <CNNaffinity>
6.5589065552

> <CNN_VS>
1.7636263371

> <CNNaffinity_variance>
0.2896794081

$$$$
[H]O[C@@]1([H])O[C@]1([H])C([H])([H])C([H])([H])C([H])([H])C([H])([H])C([H])([H])C([H])([H])C([H])([H])C([H])([H])C([H])([H])C([H])([H])C([H])([H])C([H])([H])C([H])([H])C([H])([H])c1nc(N([H])[H])nc(N2C([H])([H])C([H])([H])OC([H])([H])C2([H])[H])c1[H]


 34 36  0  0  0  0  0  0  0  0999 V2000
  -85.3252   27.9704    2.0485 C   0  0  0  0  0  0  0  0  0  0  0  0
  -86.6086   27.2518    2.1892 C   0  0  0  0  0  0  0  0  0  0  0  0
  -87.6540   27.5261    1.1676 C   0  0  0  0  0  0  0  0  0  0  0  0
  -87.1597   27.7401   -0.2105 C   0  0  0  0  0  0  0  0  0  0  0  0
  -88.2340   27.9906   -1.2150 C   0  0  0  0  0  0  0  0  0  0  0  0
  -88.9471   26.7342   -1.5545 C   0  0  0  0  0  0  0  0  0  0  0  0
  -90.4374   26.9636   -1.5133 C   0  0  0  0  0  0  0  0  0  0  0  0
  -90.9823   26.5166   -0.1985 C   0  0  0  0  0  0  0  0  0  0  0  0
  -91.1905   25.0075   -0.2188 C   0  0  0  0  0  0  0  0  0  0  0  0
  -90.3365   24.3125    0.7886 C   0  0  0  0  0  0  0  0  0  0  0  0
  -91.1734   23.4467    1.7430 C   0  0  0  0  0  0  0  0  0  0  0  0
  -90.9142   23.9369    3.1260 C   0  0  0  0  0  0  0  0  0  0  0  0
  -89.9413   25.0560    3.2381 C   0  0  0  0  0  0  0  0  0  0  0  0
  -90.5051   26.3158    3.7689 C   0  0  0  0  0  0  0  0  0  0  0  0
  -91.3465   26.2297    4.9307 O   0  0  0  0  0  0  0  0  0  0  0  0
  -90.0827   26.8473    5.0746 C   0  0  0  0  0  0  0  0  0  0  0  0
  -90.1173   28.2393    5.2634 O   0  0  0  0  0  0  0  0  0  0  0  0
  -89.1948   28.5761    5.2114 H   0  0  0  0  0  0  0  0  0  0  0  0
  -85.2487   29.3359    2.6446 C   0  0  0  0  0  0  0  0  0  0  0  0
  -82.0608   32.2829    0.4539 N   0  0  0  0  0  0  0  0  0  0  0  0
  -83.4094   31.7979    0.6267 C   0  0  0  0  0  0  0  0  0  0  0  0
  -83.6515   30.8312    1.5285 N   0  0  0  0  0  0  0  0  0  0  0  0
  -84.9003   30.3946    1.6761 C   0  0  0  0  0  0  0  0  0  0  0  0
  -85.8967   30.9438    0.9051 C   0  0  0  0  0  0  0  0  0  0  0  0
  -85.6627   31.9430   -0.0307 C   0  0  0  0  0  0  0  0  0  0  0  0
  -84.3810   32.3438   -0.1353 N   0  0  0  0  0  0  0  0  0  0  0  0
  -81.7523   32.6287   -0.4602 H   0  0  0  0  0  0  0  0  0  0  0  0
  -81.4115   32.2762    1.2658 H   0  0  0  0  0  0  0  0  0  0  0  0
  -86.7038   32.5029   -0.8219 N   0  0  0  0  0  0  0  0  0  0  0  0
  -86.4765   33.6620   -1.6164 C   0  0  0  0  0  0  0  0  0  0  0  0
  -87.5229   33.9674   -2.6259 C   0  0  0  0  0  0  0  0  0  0  0  0
  -88.6811   33.2337   -2.5203 O   0  0  0  0  0  0  0  0  0  0  0  0
  -88.5051   31.9080   -2.2262 C   0  0  0  0  0  0  0  0  0  0  0  0
  -87.9968   31.8498   -0.7865 C   0  0  0  0  0  0  0  0  0  0  0  0
 20 21  1  0  0  0
 21 22  2  0  0  0
 22 23  1  0  0  0
 23 19  1  0  0  0
 19  1  1  0  0  0
  1  2  1  0  0  0
  2  3  1  0  0  0
  3  4  1  0  0  0
  4  5  1  0  0  0
  5  6  1  0  0  0
  6  7  1  0  0  0
  7  8  1  0  0  0
  8  9  1  0  0  0
  9 10  1  0  0  0
 10 11  1  0  0  0
 11 12  1  0  0  0
 12 13  1  0  0  0
 13 14  1  0  0  0
 14 15  1  0  0  0
 15 16  1  0  0  0
 16 17  1  0  0  0
 23 24  2  0  0  0
 24 25  1  0  0  0
 25 26  2  0  0  0
 25 29  1  0  0  0
 29 30  1  0  0  0
 30 31  1  0  0  0
 31 32  1  0  0  0
 32 33  1  0  0  0
 33 34  1  0  0  0
 26 21  1  0  0  0
 34 29  1  0  0  0
 16 14  1  0  0  0
 20 27  1  0  0  0
 20 28  1  0  0  0
 17 18  1  0  0  0
M  END
> <minimizedAffinity>
-6.58651

> <CNNscore>
0.1544385403

> <CNNaffinity>
6.3139810562

> <CNN_VS>
0.9751220345

> <CNNaffinity_variance>
0.6366634369

$$$$
[H]O[C@@]1([H])O[C@]1([H])C([H])([H])C([H])([H])C([H])([H])C([H])([H])C([H])([H])C([H])([H])C([H])([H])C([H])([H])C([H])([H])C([H])([H])C([H])([H])C([H])([H])C([H])([H])C([H])([H])c1nc(N([H])[H])nc(N2C([H])([H])C([H])([H])OC([H])([H])C2([H])[H])c1[H]


 34 36  0  0  0  0  0  0  0  0999 V2000
  -87.1556   32.8594   -3.3760 C   0  0  0  0  0  0  0  0  0  0  0  0
  -87.7860   33.2604   -2.1013 C   0  0  0  0  0  0  0  0  0  0  0  0
  -87.2353   32.6627   -0.8558 C   0  0  0  0  0  0  0  0  0  0  0  0
  -85.9296   33.1996   -0.4128 C   0  0  0  0  0  0  0  0  0  0  0  0
  -84.9814   32.1650    0.0936 C   0  0  0  0  0  0  0  0  0  0  0  0
  -83.6202   32.3764   -0.4584 C   0  0  0  0  0  0  0  0  0  0  0  0
  -82.6149   31.5840    0.3394 C   0  0  0  0  0  0  0  0  0  0  0  0
  -83.2707   31.0046    1.5475 C   0  0  0  0  0  0  0  0  0  0  0  0
  -82.7419   29.5964    1.7893 C   0  0  0  0  0  0  0  0  0  0  0  0
  -83.7725   28.7113    2.4072 C   0  0  0  0  0  0  0  0  0  0  0  0
  -84.9773   29.5144    2.9213 C   0  0  0  0  0  0  0  0  0  0  0  0
  -86.2060   28.8370    2.4199 C   0  0  0  0  0  0  0  0  0  0  0  0
  -86.0823   28.1872    1.0881 C   0  0  0  0  0  0  0  0  0  0  0  0
  -86.4621   26.7584    1.0585 C   0  0  0  0  0  0  0  0  0  0  0  0
  -87.2212   26.2496    2.1676 O   0  0  0  0  0  0  0  0  0  0  0  0
  -87.8681   26.3481    0.9141 C   0  0  0  0  0  0  0  0  0  0  0  0
  -88.1366   25.1216    0.2835 O   0  0  0  0  0  0  0  0  0  0  0  0
  -88.4547   25.3113   -0.6275 H   0  0  0  0  0  0  0  0  0  0  0  0
  -88.0149   32.1274   -4.3516 C   0  0  0  0  0  0  0  0  0  0  0  0
  -87.6706   27.6754   -2.4260 N   0  0  0  0  0  0  0  0  0  0  0  0
  -88.4695   28.7790   -2.9031 C   0  0  0  0  0  0  0  0  0  0  0  0
  -87.8585   29.8776   -3.3785 N   0  0  0  0  0  0  0  0  0  0  0  0
  -88.6090   30.8868   -3.8147 C   0  0  0  0  0  0  0  0  0  0  0  0
  -89.9777   30.7731   -3.7648 C   0  0  0  0  0  0  0  0  0  0  0  0
  -90.6239   29.6449   -3.2765 C   0  0  0  0  0  0  0  0  0  0  0  0
  -89.8130   28.6576   -2.8498 N   0  0  0  0  0  0  0  0  0  0  0  0
  -88.0223   27.0735   -1.6746 H   0  0  0  0  0  0  0  0  0  0  0  0
  -86.7391   27.5014   -2.8535 H   0  0  0  0  0  0  0  0  0  0  0  0
  -92.0417   29.5405   -3.2309 N   0  0  0  0  0  0  0  0  0  0  0  0
  -92.7426   29.6277   -1.9949 C   0  0  0  0  0  0  0  0  0  0  0  0
  -94.2123   29.8189   -2.0989 C   0  0  0  0  0  0  0  0  0  0  0  0
  -94.7431   29.6636   -3.3579 O   0  0  0  0  0  0  0  0  0  0  0  0
  -93.9985   30.2011   -4.3735 C   0  0  0  0  0  0  0  0  0  0  0  0
  -92.7393   29.3430   -4.4855 C   0  0  0  0  0  0  0  0  0  0  0  0
 20 21  1  0  0  0
 21 22  2  0  0  0
 22 23  1  0  0  0
 23 19  1  0  0  0
 19  1  1  0  0  0
  1  2  1  0  0  0
  2  3  1  0  0  0
  3  4  1  0  0  0
  4  5  1  0  0  0
  5  6  1  0  0  0
  6  7  1  0  0  0
  7  8  1  0  0  0
  8  9  1  0  0  0
  9 10  1  0  0  0
 10 11  1  0  0  0
 11 12  1  0  0  0
 12 13  1  0  0  0
 13 14  1  0  0  0
 14 15  1  0  0  0
 15 16  1  0  0  0
 16 17  1  0  0  0
 23 24  2  0  0  0
 24 25  1  0  0  0
 25 26  2  0  0  0
 25 29  1  0  0  0
 29 30  1  0  0  0
 30 31  1  0  0  0
 31 32  1  0  0  0
 32 33  1  0  0  0
 33 34  1  0  0  0
 26 21  1  0  0  0
 34 29  1  0  0  0
 16 14  1  0  0  0
 20 27  1  0  0  0
 20 28  1  0  0  0
 17 18  1  0  0  0
M  END
> <minimizedAffinity>
-7.37808

> <CNNscore>
0.1222168431

> <CNNaffinity>
5.9265985489

> <CNN_VS>
0.7243301868

> <CNNaffinity_variance>
0.6636332273

$$$$
[H]O[C@@]1([H])O[C@]1([H])C([H])([H])C([H])([H])C([H])([H])C([H])([H])C([H])([H])C([H])([H])C([H])([H])C([H])([H])C([H])([H])C([H])([H])C([H])([H])C([H])([H])C([H])([H])C([H])([H])c1nc(N([H])[H])nc(N2C([H])([H])C([H])([H])OC([H])([H])C2([H])[H])c1[H]


 34 36  0  0  0  0  0  0  0  0999 V2000
  -84.9035   29.0746    2.9621 C   0  0  0  0  0  0  0  0  0  0  0  0
  -84.7547   30.4991    2.5990 C   0  0  0  0  0  0  0  0  0  0  0  0
  -83.6312   30.8529    1.6910 C   0  0  0  0  0  0  0  0  0  0  0  0
  -84.0223   31.4260    0.3842 C   0  0  0  0  0  0  0  0  0  0  0  0
  -85.3020   32.1925    0.4094 C   0  0  0  0  0  0  0  0  0  0  0  0
  -86.4387   31.3429   -0.0243 C   0  0  0  0  0  0  0  0  0  0  0  0
  -87.0098   31.8714   -1.3165 C   0  0  0  0  0  0  0  0  0  0  0  0
  -86.9362   33.3613   -1.3306 C   0  0  0  0  0  0  0  0  0  0  0  0
  -87.2937   33.8767   -2.7191 C   0  0  0  0  0  0  0  0  0  0  0  0
  -88.6781   34.4318   -2.7693 C   0  0  0  0  0  0  0  0  0  0  0  0
  -88.7495   35.7046   -3.6270 C   0  0  0  0  0  0  0  0  0  0  0  0
  -87.3561   36.0426   -4.0326 C   0  0  0  0  0  0  0  0  0  0  0  0
  -87.1631   36.3427   -5.4762 C   0  0  0  0  0  0  0  0  0  0  0  0
  -86.9135   37.7672   -5.7846 C   0  0  0  0  0  0  0  0  0  0  0  0
  -86.3200   38.5758   -4.7554 O   0  0  0  0  0  0  0  0  0  0  0  0
  -85.5432   38.2911   -5.9020 C   0  0  0  0  0  0  0  0  0  0  0  0
  -85.3246   39.3820   -6.7602 O   0  0  0  0  0  0  0  0  0  0  0  0
  -84.8999   39.0434   -7.5800 H   0  0  0  0  0  0  0  0  0  0  0  0
  -84.9500   28.0943    1.8384 C   0  0  0  0  0  0  0  0  0  0  0  0
  -88.2513   27.8630   -1.7246 N   0  0  0  0  0  0  0  0  0  0  0  0
  -87.8892   27.7073   -0.3359 C   0  0  0  0  0  0  0  0  0  0  0  0
  -86.6295   27.9722    0.0503 N   0  0  0  0  0  0  0  0  0  0  0  0
  -86.3112   27.8237    1.3343 C   0  0  0  0  0  0  0  0  0  0  0  0
  -87.2765   27.4062    2.2190 C   0  0  0  0  0  0  0  0  0  0  0  0
  -88.5821   27.1285    1.8356 C   0  0  0  0  0  0  0  0  0  0  0  0
  -88.8445   27.2967    0.5252 N   0  0  0  0  0  0  0  0  0  0  0  0
  -88.9798   27.2704   -2.1352 H   0  0  0  0  0  0  0  0  0  0  0  0
  -87.7650   28.5809   -2.2981 H   0  0  0  0  0  0  0  0  0  0  0  0
  -89.5715   26.6974    2.7622 N   0  0  0  0  0  0  0  0  0  0  0  0
  -90.1125   25.3823    2.6961 C   0  0  0  0  0  0  0  0  0  0  0  0
  -90.8911   24.9447    3.8834 C   0  0  0  0  0  0  0  0  0  0  0  0
  -91.1843   25.9300    4.7966 O   0  0  0  0  0  0  0  0  0  0  0  0
  -90.1696   26.8160    5.0423 C   0  0  0  0  0  0  0  0  0  0  0  0
  -90.0037   27.6450    3.7697 C   0  0  0  0  0  0  0  0  0  0  0  0
 20 21  1  0  0  0
 21 22  2  0  0  0
 22 23  1  0  0  0
 23 19  1  0  0  0
 19  1  1  0  0  0
  1  2  1  0  0  0
  2  3  1  0  0  0
  3  4  1  0  0  0
  4  5  1  0  0  0
  5  6  1  0  0  0
  6  7  1  0  0  0
  7  8  1  0  0  0
  8  9  1  0  0  0
  9 10  1  0  0  0
 10 11  1  0  0  0
 11 12  1  0  0  0
 12 13  1  0  0  0
 13 14  1  0  0  0
 14 15  1  0  0  0
 15 16  1  0  0  0
 16 17  1  0  0  0
 23 24  2  0  0  0
 24 25  1  0  0  0
 25 26  2  0  0  0
 25 29  1  0  0  0
 29 30  1  0  0  0
 30 31  1  0  0  0
 31 32  1  0  0  0
 32 33  1  0  0  0
 33 34  1  0  0  0
 26 21  1  0  0  0
 34 29  1  0  0  0
 16 14  1  0  0  0
 20 27  1  0  0  0
 20 28  1  0  0  0
 17 18  1  0  0  0
M  END
> <minimizedAffinity>
-6.95132

> <CNNscore>
0.0972134992

> <CNNaffinity>
6.0939311981

> <CNN_VS>
0.5924123526

> <CNNaffinity_variance>
0.3693839908

$$$$
[H]O[C@@]1([H])O[C@]1([H])C([H])([H])C([H])([H])C([H])([H])C([H])([H])C([H])([H])C([H])([H])C([H])([H])C([H])([H])C([H])([H])C([H])([H])C([H])([H])C([H])([H])C([H])([H])C([H])([H])c1nc(N([H])[H])nc(N2C([H])([H])C([H])([H])OC([H])([H])C2([H])[H])c1[H]


 34 36  0  0  0  0  0  0  0  0999 V2000
  -86.1824   28.1898    2.2743 C   0  0  0  0  0  0  0  0  0  0  0  0
  -86.6122   26.8519    1.8175 C   0  0  0  0  0  0  0  0  0  0  0  0
  -87.6185   26.8007    0.7237 C   0  0  0  0  0  0  0  0  0  0  0  0
  -88.9902   26.4278    1.1346 C   0  0  0  0  0  0  0  0  0  0  0  0
  -89.1024   25.9678    2.5494 C   0  0  0  0  0  0  0  0  0  0  0  0
  -90.1694   24.9465    2.6928 C   0  0  0  0  0  0  0  0  0  0  0  0
  -90.6059   24.4666    1.3310 C   0  0  0  0  0  0  0  0  0  0  0  0
  -90.5215   22.9786    1.2675 C   0  0  0  0  0  0  0  0  0  0  0  0
  -90.2280   22.5447   -0.1632 C   0  0  0  0  0  0  0  0  0  0  0  0
  -90.1439   23.7086   -1.0935 C   0  0  0  0  0  0  0  0  0  0  0  0
  -91.1552   23.5907   -2.2443 C   0  0  0  0  0  0  0  0  0  0  0  0
  -92.3555   24.3860   -1.8606 C   0  0  0  0  0  0  0  0  0  0  0  0
  -92.4527   25.7371   -2.4740 C   0  0  0  0  0  0  0  0  0  0  0  0
  -91.2403   26.1776   -3.1971 C   0  0  0  0  0  0  0  0  0  0  0  0
  -91.2558   27.4900   -3.7824 O   0  0  0  0  0  0  0  0  0  0  0  0
  -90.4000   27.2689   -2.6787 C   0  0  0  0  0  0  0  0  0  0  0  0
  -89.0283   27.2475   -2.9824 O   0  0  0  0  0  0  0  0  0  0  0  0
  -88.5438   26.9518   -2.1794 H   0  0  0  0  0  0  0  0  0  0  0  0
  -84.7722   28.5802    1.9831 C   0  0  0  0  0  0  0  0  0  0  0  0
  -82.1849   32.3797    0.3967 N   0  0  0  0  0  0  0  0  0  0  0  0
  -83.4366   31.6682    0.5008 C   0  0  0  0  0  0  0  0  0  0  0  0
  -83.4798   30.5059    1.1743 N   0  0  0  0  0  0  0  0  0  0  0  0
  -84.6414   29.8617    1.2614 C   0  0  0  0  0  0  0  0  0  0  0  0
  -85.7535   30.4034    0.6625 C   0  0  0  0  0  0  0  0  0  0  0  0
  -85.7251   31.6030   -0.0368 C   0  0  0  0  0  0  0  0  0  0  0  0
  -84.5231   32.2085   -0.0909 N   0  0  0  0  0  0  0  0  0  0  0  0
  -81.9884   32.9556   -0.4280 H   0  0  0  0  0  0  0  0  0  0  0  0
  -81.4904   32.2996    1.1661 H   0  0  0  0  0  0  0  0  0  0  0  0
  -86.8841   32.1524   -0.6517 N   0  0  0  0  0  0  0  0  0  0  0  0
  -86.8117   33.3598   -1.4024 C   0  0  0  0  0  0  0  0  0  0  0  0
  -87.9950   33.6662   -2.2470 C   0  0  0  0  0  0  0  0  0  0  0  0
  -89.0982   32.8741   -2.0321 O   0  0  0  0  0  0  0  0  0  0  0  0
  -88.8315   31.5450   -1.8390 C   0  0  0  0  0  0  0  0  0  0  0  0
  -88.1335   31.4379   -0.4841 C   0  0  0  0  0  0  0  0  0  0  0  0
 20 21  1  0  0  0
 21 22  2  0  0  0
 22 23  1  0  0  0
 23 19  1  0  0  0
 19  1  1  0  0  0
  1  2  1  0  0  0
  2  3  1  0  0  0
  3  4  1  0  0  0
  4  5  1  0  0  0
  5  6  1  0  0  0
  6  7  1  0  0  0
  7  8  1  0  0  0
  8  9  1  0  0  0
  9 10  1  0  0  0
 10 11  1  0  0  0
 11 12  1  0  0  0
 12 13  1  0  0  0
 13 14  1  0  0  0
 14 15  1  0  0  0
 15 16  1  0  0  0
 16 17  1  0  0  0
 23 24  2  0  0  0
 24 25  1  0  0  0
 25 26  2  0  0  0
 25 29  1  0  0  0
 29 30  1  0  0  0
 30 31  1  0  0  0
 31 32  1  0  0  0
 32 33  1  0  0  0
 33 34  1  0  0  0
 26 21  1  0  0  0
 34 29  1  0  0  0
 16 14  1  0  0  0
 20 27  1  0  0  0
 20 28  1  0  0  0
 17 18  1  0  0  0
M  END
> <minimizedAffinity>
-6.19047

> <CNNscore>
0.0911116377

> <CNNaffinity>
5.9951066971

> <CNN_VS>
0.5462239981

> <CNNaffinity_variance>
0.4333263934

$$$$
[H]O[C@@]1([H])O[C@]1([H])C([H])([H])C([H])([H])C([H])([H])C([H])([H])C([H])([H])C([H])([H])C([H])([H])C([H])([H])C([H])([H])C([H])([H])C([H])([H])C([H])([H])C([H])([H])C([H])([H])c1nc(N([H])[H])nc(N2C([H])([H])C([H])([H])OC([H])([H])C2([H])[H])c1[H]


 34 36  0  0  0  0  0  0  0  0999 V2000
  -89.5000   31.2141   -1.5203 C   0  0  0  0  0  0  0  0  0  0  0  0
  -89.3321   32.6743   -1.3693 C   0  0  0  0  0  0  0  0  0  0  0  0
  -88.7763   33.4161   -2.5325 C   0  0  0  0  0  0  0  0  0  0  0  0
  -87.4693   34.0718   -2.3065 C   0  0  0  0  0  0  0  0  0  0  0  0
  -86.4064   33.1592   -1.7935 C   0  0  0  0  0  0  0  0  0  0  0  0
  -85.8617   33.6505   -0.5034 C   0  0  0  0  0  0  0  0  0  0  0  0
  -85.0643   32.5586    0.1653 C   0  0  0  0  0  0  0  0  0  0  0  0
  -83.8889   32.1997   -0.6803 C   0  0  0  0  0  0  0  0  0  0  0  0
  -82.7289   31.7756    0.2118 C   0  0  0  0  0  0  0  0  0  0  0  0
  -83.1917   31.3527    1.5661 C   0  0  0  0  0  0  0  0  0  0  0  0
  -83.2059   29.8230    1.7100 C   0  0  0  0  0  0  0  0  0  0  0  0
  -84.3260   29.4763    2.6294 C   0  0  0  0  0  0  0  0  0  0  0  0
  -85.6231   29.1658    1.9719 C   0  0  0  0  0  0  0  0  0  0  0  0
  -85.6871   27.8376    1.3249 C   0  0  0  0  0  0  0  0  0  0  0  0
  -85.1601   26.7171    2.0543 O   0  0  0  0  0  0  0  0  0  0  0  0
  -86.5585   26.7756    1.8529 C   0  0  0  0  0  0  0  0  0  0  0  0
  -87.0707   25.8308    0.9478 O   0  0  0  0  0  0  0  0  0  0  0  0
  -88.0146   26.0506    0.7806 H   0  0  0  0  0  0  0  0  0  0  0  0
  -88.5761   30.3450   -0.7350 C   0  0  0  0  0  0  0  0  0  0  0  0
  -89.6137   25.8677   -2.3240 N   0  0  0  0  0  0  0  0  0  0  0  0
  -89.5720   26.8455   -1.2628 C   0  0  0  0  0  0  0  0  0  0  0  0
  -89.1058   28.0792   -1.5215 N   0  0  0  0  0  0  0  0  0  0  0  0
  -89.0736   28.9696   -0.5325 C   0  0  0  0  0  0  0  0  0  0  0  0
  -89.5159   28.6000    0.7151 C   0  0  0  0  0  0  0  0  0  0  0  0
  -90.0003   27.3295    0.9984 C   0  0  0  0  0  0  0  0  0  0  0  0
  -90.0086   26.4727   -0.0409 N   0  0  0  0  0  0  0  0  0  0  0  0
  -89.5039   24.8716   -2.1094 H   0  0  0  0  0  0  0  0  0  0  0  0
  -89.7560   26.1874   -3.3029 H   0  0  0  0  0  0  0  0  0  0  0  0
  -90.4553   26.9606    2.2946 N   0  0  0  0  0  0  0  0  0  0  0  0
  -90.5586   25.5918    2.6718 C   0  0  0  0  0  0  0  0  0  0  0  0
  -90.7388   25.3348    4.1240 C   0  0  0  0  0  0  0  0  0  0  0  0
  -91.0082   26.4421    4.8934 O   0  0  0  0  0  0  0  0  0  0  0  0
  -90.2914   27.5632    4.5707 C   0  0  0  0  0  0  0  0  0  0  0  0
  -90.8072   28.0276    3.2096 C   0  0  0  0  0  0  0  0  0  0  0  0
 20 21  1  0  0  0
 21 22  2  0  0  0
 22 23  1  0  0  0
 23 19  1  0  0  0
 19  1  1  0  0  0
  1  2  1  0  0  0
  2  3  1  0  0  0
  3  4  1  0  0  0
  4  5  1  0  0  0
  5  6  1  0  0  0
  6  7  1  0  0  0
  7  8  1  0  0  0
  8  9  1  0  0  0
  9 10  1  0  0  0
 10 11  1  0  0  0
 11 12  1  0  0  0
 12 13  1  0  0  0
 13 14  1  0  0  0
 14 15  1  0  0  0
 15 16  1  0  0  0
 16 17  1  0  0  0
 23 24  2  0  0  0
 24 25  1  0  0  0
 25 26  2  0  0  0
 25 29  1  0  0  0
 29 30  1  0  0  0
 30 31  1  0  0  0
 31 32  1  0  0  0
 32 33  1  0  0  0
 33 34  1  0  0  0
 26 21  1  0  0  0
 34 29  1  0  0  0
 16 14  1  0  0  0
 20 27  1  0  0  0
 20 28  1  0  0  0
 17 18  1  0  0  0
M  END
> <minimizedAffinity>
-7.47544

> <CNNscore>
0.0910215452

> <CNNaffinity>
6.0728802681

> <CNN_VS>
0.5527629256

> <CNNaffinity_variance>
0.7250588536

$$$$
[H]OC([H])([H])C1(C([H])([H])c2c([H])c([H])c([H])c([H])c2[H])C([H])([H])C([H])([H])C([H])(OC(=O)C2([H])N=C(N([H])[H])N(c3c([H])c([H])c([H])c([H])c3[H])C2=O)C([H])([H])C1([H])[H]


 34 37  0  0  0  0  0  0  0  0999 V2000
  -87.0537   32.2052   -3.1073 O   0  0  0  0  0  0  0  0  0  0  0  0
  -90.9592   30.5805   -3.3175 C   0  0  0  0  0  0  0  0  0  0  0  0
  -89.6688   29.7714   -3.0959 C   0  0  0  0  0  0  0  0  0  0  0  0
  -88.5245   30.4205   -3.8387 C   0  0  0  0  0  0  0  0  0  0  0  0
  -88.3842   31.8258   -3.3834 C   0  0  0  0  0  0  0  0  0  0  0  0
  -89.3399   32.1417   -2.2976 C   0  0  0  0  0  0  0  0  0  0  0  0
  -90.7800   31.9537   -2.7626 C   0  0  0  0  0  0  0  0  0  0  0  0
  -91.6400   29.4946   -5.3661 O   0  0  0  0  0  0  0  0  0  0  0  0
  -91.2172   30.7033   -4.8242 C   0  0  0  0  0  0  0  0  0  0  0  0
  -92.5671   29.5127   -5.7078 H   0  0  0  0  0  0  0  0  0  0  0  0
  -92.0936   29.8209   -2.7490 C   0  0  0  0  0  0  0  0  0  0  0  0
  -91.7988   28.9168   -1.6222 C   0  0  0  0  0  0  0  0  0  0  0  0
  -91.3862   29.3436   -0.3762 C   0  0  0  0  0  0  0  0  0  0  0  0
  -91.1227   28.4445    0.6510 C   0  0  0  0  0  0  0  0  0  0  0  0
  -91.2624   27.0890    0.4686 C   0  0  0  0  0  0  0  0  0  0  0  0
  -91.6733   26.6418   -0.7661 C   0  0  0  0  0  0  0  0  0  0  0  0
  -91.9282   27.5518   -1.7680 C   0  0  0  0  0  0  0  0  0  0  0  0
  -86.6501   33.4290   -2.6446 C   0  0  0  0  0  0  0  0  0  0  0  0
  -86.7310   34.3803   -3.4925 O   0  0  0  0  0  0  0  0  0  0  0  0
  -86.1558   33.6363   -1.2660 C   0  0  0  0  0  0  0  0  0  0  0  0
  -84.7336   33.6427   -1.2564 N   0  0  0  0  0  0  0  0  0  0  0  0
  -84.2208   32.7407   -0.5088 C   0  0  0  0  0  0  0  0  0  0  0  0
  -82.8128   32.4851   -0.2853 N   0  0  0  0  0  0  0  0  0  0  0  0
  -85.2602   31.9970    0.1011 N   0  0  0  0  0  0  0  0  0  0  0  0
  -86.4912   32.5358   -0.3484 C   0  0  0  0  0  0  0  0  0  0  0  0
  -87.6125   32.1265   -0.0071 O   0  0  0  0  0  0  0  0  0  0  0  0
  -82.1462   33.2795   -0.2521 H   0  0  0  0  0  0  0  0  0  0  0  0
  -82.4336   31.5244   -0.1539 H   0  0  0  0  0  0  0  0  0  0  0  0
  -85.0897   30.8873    1.0176 C   0  0  0  0  0  0  0  0  0  0  0  0
  -85.0720   31.0705    2.3824 C   0  0  0  0  0  0  0  0  0  0  0  0
  -84.9118   30.0342    3.2759 C   0  0  0  0  0  0  0  0  0  0  0  0
  -84.7636   28.7655    2.7905 C   0  0  0  0  0  0  0  0  0  0  0  0
  -84.7758   28.5396    1.4242 C   0  0  0  0  0  0  0  0  0  0  0  0
  -84.9378   29.5946    0.5471 C   0  0  0  0  0  0  0  0  0  0  0  0
  8  9  1  0  0  0
  9  2  1  0  0  0
  2 11  1  0  0  0
 11 12  1  0  0  0
 12 13  2  0  0  0
 13 14  1  0  0  0
 14 15  2  0  0  0
 15 16  1  0  0  0
 16 17  2  0  0  0
  2  3  1  0  0  0
  3  4  1  0  0  0
  4  5  1  0  0  0
  5  6  1  0  0  0
  6  7  1  0  0  0
  5  1  1  0  0  0
  1 18  1  0  0  0
 18 19  2  0  0  0
 18 20  1  0  0  0
 20 21  1  0  0  0
 21 22  2  0  0  0
 22 23  1  0  0  0
 22 24  1  0  0  0
 24 25  1  0  0  0
 25 26  2  0  0  0
 24 29  1  0  0  0
 29 30  2  0  0  0
 30 31  1  0  0  0
 31 32  2  0  0  0
 32 33  1  0  0  0
 33 34  2  0  0  0
  7  2  1  0  0  0
 25 20  1  0  0  0
 34 29  1  0  0  0
 17 12  1  0  0  0
  8 10  1  0  0  0
 23 27  1  0  0  0
 23 28  1  0  0  0
M  END
> <minimizedAffinity>
-7.75038

> <CNNscore>
0.5531883240

> <CNNaffinity>
6.5394849777

> <CNN_VS>
3.6175668240

> <CNNaffinity_variance>
0.0597408414

$$$$
[H]OC([H])([H])C1(C([H])([H])c2c([H])c([H])c([H])c([H])c2[H])C([H])([H])C([H])([H])C([H])(OC(=O)C2([H])N=C(N([H])[H])N(c3c([H])c([H])c([H])c([H])c3[H])C2=O)C([H])([H])C1([H])[H]


 34 37  0  0  0  0  0  0  0  0999 V2000
  -87.5064   32.1022   -3.1310 O   0  0  0  0  0  0  0  0  0  0  0  0
  -89.5564   35.5573   -4.4712 C   0  0  0  0  0  0  0  0  0  0  0  0
  -88.9234   35.3811   -3.0795 C   0  0  0  0  0  0  0  0  0  0  0  0
  -89.0212   33.9351   -2.6527 C   0  0  0  0  0  0  0  0  0  0  0  0
  -88.3648   33.0815   -3.6736 C   0  0  0  0  0  0  0  0  0  0  0  0
  -87.7503   33.8954   -4.7469 C   0  0  0  0  0  0  0  0  0  0  0  0
  -88.7986   34.7401   -5.4631 C   0  0  0  0  0  0  0  0  0  0  0  0
  -91.8279   35.9094   -3.7262 O   0  0  0  0  0  0  0  0  0  0  0  0
  -91.0002   35.0420   -4.4303 C   0  0  0  0  0  0  0  0  0  0  0  0
  -92.5213   36.3401   -4.2833 H   0  0  0  0  0  0  0  0  0  0  0  0
  -89.6256   37.0027   -4.7765 C   0  0  0  0  0  0  0  0  0  0  0  0
  -88.4622   37.8254   -4.3977 C   0  0  0  0  0  0  0  0  0  0  0  0
  -88.4249   38.6481   -3.2902 C   0  0  0  0  0  0  0  0  0  0  0  0
  -87.2984   39.4021   -2.9809 C   0  0  0  0  0  0  0  0  0  0  0  0
  -86.1713   39.3596   -3.7670 C   0  0  0  0  0  0  0  0  0  0  0  0
  -86.1868   38.5452   -4.8760 C   0  0  0  0  0  0  0  0  0  0  0  0
  -87.3145   37.8080   -5.1618 C   0  0  0  0  0  0  0  0  0  0  0  0
  -87.8234   31.2281   -2.1261 C   0  0  0  0  0  0  0  0  0  0  0  0
  -88.4427   30.1761   -2.5008 O   0  0  0  0  0  0  0  0  0  0  0  0
  -87.4765   31.4813   -0.7106 C   0  0  0  0  0  0  0  0  0  0  0  0
  -86.3628   32.3625   -0.6343 N   0  0  0  0  0  0  0  0  0  0  0  0
  -85.3577   31.8681   -0.0171 C   0  0  0  0  0  0  0  0  0  0  0  0
  -84.0805   32.5055    0.2278 N   0  0  0  0  0  0  0  0  0  0  0  0
  -85.6780   30.5589    0.4176 N   0  0  0  0  0  0  0  0  0  0  0  0
  -87.0048   30.2840    0.0033 C   0  0  0  0  0  0  0  0  0  0  0  0
  -87.6121   29.2236    0.2227 O   0  0  0  0  0  0  0  0  0  0  0  0
  -84.0440   33.5248    0.4180 H   0  0  0  0  0  0  0  0  0  0  0  0
  -83.1828   31.9781    0.2217 H   0  0  0  0  0  0  0  0  0  0  0  0
  -84.8034   29.6670    1.1524 C   0  0  0  0  0  0  0  0  0  0  0  0
  -83.4679   29.9494    1.3355 C   0  0  0  0  0  0  0  0  0  0  0  0
  -82.6145   29.1199    2.0294 C   0  0  0  0  0  0  0  0  0  0  0  0
  -83.1111   27.9636    2.5619 C   0  0  0  0  0  0  0  0  0  0  0  0
  -84.4487   27.6435    2.3995 C   0  0  0  0  0  0  0  0  0  0  0  0
  -85.2858   28.4908    1.6997 C   0  0  0  0  0  0  0  0  0  0  0  0
  8  9  1  0  0  0
  9  2  1  0  0  0
  2 11  1  0  0  0
 11 12  1  0  0  0
 12 13  2  0  0  0
 13 14  1  0  0  0
 14 15  2  0  0  0
 15 16  1  0  0  0
 16 17  2  0  0  0
  2  3  1  0  0  0
  3  4  1  0  0  0
  4  5  1  0  0  0
  5  6  1  0  0  0
  6  7  1  0  0  0
  5  1  1  0  0  0
  1 18  1  0  0  0
 18 19  2  0  0  0
 18 20  1  0  0  0
 20 21  1  0  0  0
 21 22  2  0  0  0
 22 23  1  0  0  0
 22 24  1  0  0  0
 24 25  1  0  0  0
 25 26  2  0  0  0
 24 29  1  0  0  0
 29 30  2  0  0  0
 30 31  1  0  0  0
 31 32  2  0  0  0
 32 33  1  0  0  0
 33 34  2  0  0  0
  7  2  1  0  0  0
 25 20  1  0  0  0
 34 29  1  0  0  0
 17 12  1  0  0  0
  8 10  1  0  0  0
 23 27  1  0  0  0
 23 28  1  0  0  0
M  END
> <minimizedAffinity>
-8.74539

> <CNNscore>
0.2820520699

> <CNNaffinity>
6.3146910667

> <CNN_VS>
1.7810716629

> <CNNaffinity_variance>
0.2156244814

$$$$
[H]OC([H])([H])C1(C([H])([H])c2c([H])c([H])c([H])c([H])c2[H])C([H])([H])C([H])([H])C([H])(OC(=O)C2([H])N=C(N([H])[H])N(c3c([H])c([H])c([H])c([H])c3[H])C2=O)C([H])([H])C1([H])[H]


 34 37  0  0  0  0  0  0  0  0999 V2000
  -90.1359   31.4743   -2.9338 O   0  0  0  0  0  0  0  0  0  0  0  0
  -90.1335   27.3545   -1.9519 C   0  0  0  0  0  0  0  0  0  0  0  0
  -88.8903   28.2610   -1.9927 C   0  0  0  0  0  0  0  0  0  0  0  0
  -89.0555   29.3069   -3.0703 C   0  0  0  0  0  0  0  0  0  0  0  0
  -90.2970   30.0779   -2.8134 C   0  0  0  0  0  0  0  0  0  0  0  0
  -90.9490   29.6516   -1.5543 C   0  0  0  0  0  0  0  0  0  0  0  0
  -91.3300   28.1760   -1.6062 C   0  0  0  0  0  0  0  0  0  0  0  0
  -91.6448   26.9906   -3.8019 O   0  0  0  0  0  0  0  0  0  0  0  0
  -90.3543   26.7497   -3.3437 C   0  0  0  0  0  0  0  0  0  0  0  0
  -91.6837   27.5791   -4.5948 H   0  0  0  0  0  0  0  0  0  0  0  0
  -89.8635   26.2278   -1.0329 C   0  0  0  0  0  0  0  0  0  0  0  0
  -88.9543   26.4872    0.0985 C   0  0  0  0  0  0  0  0  0  0  0  0
  -87.6167   26.1475    0.1089 C   0  0  0  0  0  0  0  0  0  0  0  0
  -86.8053   26.4175    1.2052 C   0  0  0  0  0  0  0  0  0  0  0  0
  -87.3024   27.0360    2.3279 C   0  0  0  0  0  0  0  0  0  0  0  0
  -88.6337   27.3838    2.3385 C   0  0  0  0  0  0  0  0  0  0  0  0
  -89.4174   27.1058    1.2405 C   0  0  0  0  0  0  0  0  0  0  0  0
  -88.9413   32.1374   -3.0217 C   0  0  0  0  0  0  0  0  0  0  0  0
  -88.4018   32.1268   -4.1791 O   0  0  0  0  0  0  0  0  0  0  0  0
  -88.3192   32.8158   -1.8638 C   0  0  0  0  0  0  0  0  0  0  0  0
  -87.1117   33.4512   -2.2651 N   0  0  0  0  0  0  0  0  0  0  0  0
  -86.0797   33.0402   -1.6313 C   0  0  0  0  0  0  0  0  0  0  0  0
  -84.7118   33.4836   -1.8045 N   0  0  0  0  0  0  0  0  0  0  0  0
  -86.4727   32.0546   -0.6935 N   0  0  0  0  0  0  0  0  0  0  0  0
  -87.8755   31.8913   -0.8083 C   0  0  0  0  0  0  0  0  0  0  0  0
  -88.5573   31.1075   -0.1285 O   0  0  0  0  0  0  0  0  0  0  0  0
  -84.5193   34.4791   -2.0248 H   0  0  0  0  0  0  0  0  0  0  0  0
  -83.9000   32.8379   -1.7161 H   0  0  0  0  0  0  0  0  0  0  0  0
  -85.5951   31.3452    0.2158 C   0  0  0  0  0  0  0  0  0  0  0  0
  -84.8777   32.0018    1.1910 C   0  0  0  0  0  0  0  0  0  0  0  0
  -84.0368   31.3526    2.0682 C   0  0  0  0  0  0  0  0  0  0  0  0
  -83.9056   29.9960    1.9700 C   0  0  0  0  0  0  0  0  0  0  0  0
  -84.6100   29.2992    1.0025 C   0  0  0  0  0  0  0  0  0  0  0  0
  -85.4476   29.9715    0.1335 C   0  0  0  0  0  0  0  0  0  0  0  0
  8  9  1  0  0  0
  9  2  1  0  0  0
  2 11  1  0  0  0
 11 12  1  0  0  0
 12 13  2  0  0  0
 13 14  1  0  0  0
 14 15  2  0  0  0
 15 16  1  0  0  0
 16 17  2  0  0  0
  2  3  1  0  0  0
  3  4  1  0  0  0
  4  5  1  0  0  0
  5  6  1  0  0  0
  6  7  1  0  0  0
  5  1  1  0  0  0
  1 18  1  0  0  0
 18 19  2  0  0  0
 18 20  1  0  0  0
 20 21  1  0  0  0
 21 22  2  0  0  0
 22 23  1  0  0  0
 22 24  1  0  0  0
 24 25  1  0  0  0
 25 26  2  0  0  0
 24 29  1  0  0  0
 29 30  2  0  0  0
 30 31  1  0  0  0
 31 32  2  0  0  0
 32 33  1  0  0  0
 33 34  2  0  0  0
  7  2  1  0  0  0
 25 20  1  0  0  0
 34 29  1  0  0  0
 17 12  1  0  0  0
  8 10  1  0  0  0
 23 27  1  0  0  0
 23 28  1  0  0  0
M  END
> <minimizedAffinity>
-7.92562

> <CNNscore>
0.2711372972

> <CNNaffinity>
6.2822594643

> <CNN_VS>
1.7033548355

> <CNNaffinity_variance>
0.1327019036

$$$$
[H]OC([H])([H])C1(C([H])([H])c2c([H])c([H])c([H])c([H])c2[H])C([H])([H])C([H])([H])C([H])(OC(=O)C2([H])N=C(N([H])[H])N(c3c([H])c([H])c([H])c([H])c3[H])C2=O)C([H])([H])C1([H])[H]


 34 37  0  0  0  0  0  0  0  0999 V2000
  -89.5460   29.2031   -3.0870 O   0  0  0  0  0  0  0  0  0  0  0  0
  -88.0624   27.4341    0.4635 C   0  0  0  0  0  0  0  0  0  0  0  0
  -87.5363   28.7338   -0.1711 C   0  0  0  0  0  0  0  0  0  0  0  0
  -87.6523   28.6518   -1.6752 C   0  0  0  0  0  0  0  0  0  0  0  0
  -89.0663   28.3883   -2.0400 C   0  0  0  0  0  0  0  0  0  0  0  0
  -89.9393   28.3651   -0.8444 C   0  0  0  0  0  0  0  0  0  0  0  0
  -89.5075   27.2735    0.1289 C   0  0  0  0  0  0  0  0  0  0  0  0
  -87.9896   25.0532    0.0573 O   0  0  0  0  0  0  0  0  0  0  0  0
  -87.2986   26.2449   -0.1314 C   0  0  0  0  0  0  0  0  0  0  0  0
  -88.3028   24.6360   -0.7820 H   0  0  0  0  0  0  0  0  0  0  0  0
  -87.7561   27.4599    1.9101 C   0  0  0  0  0  0  0  0  0  0  0  0
  -88.8192   27.0146    2.8296 C   0  0  0  0  0  0  0  0  0  0  0  0
  -89.8022   27.8420    3.3334 C   0  0  0  0  0  0  0  0  0  0  0  0
  -90.7817   27.3664    4.1980 C   0  0  0  0  0  0  0  0  0  0  0  0
  -90.8126   26.0486    4.5884 C   0  0  0  0  0  0  0  0  0  0  0  0
  -89.8419   25.2059    4.0973 C   0  0  0  0  0  0  0  0  0  0  0  0
  -88.8820   25.7004    3.2423 C   0  0  0  0  0  0  0  0  0  0  0  0
  -89.4549   30.5680   -3.1449 C   0  0  0  0  0  0  0  0  0  0  0  0
  -90.1243   31.1920   -2.2543 O   0  0  0  0  0  0  0  0  0  0  0  0
  -88.6431   31.2702   -4.1627 C   0  0  0  0  0  0  0  0  0  0  0  0
  -87.4152   31.7026   -3.5899 N   0  0  0  0  0  0  0  0  0  0  0  0
  -87.2363   32.9674   -3.6526 C   0  0  0  0  0  0  0  0  0  0  0  0
  -86.0974   33.7159   -3.1624 N   0  0  0  0  0  0  0  0  0  0  0  0
  -88.3475   33.5620   -4.2985 N   0  0  0  0  0  0  0  0  0  0  0  0
  -89.2500   32.5238   -4.6378 C   0  0  0  0  0  0  0  0  0  0  0  0
  -90.3327   32.6869   -5.2231 O   0  0  0  0  0  0  0  0  0  0  0  0
  -85.1478   33.3019   -3.2211 H   0  0  0  0  0  0  0  0  0  0  0  0
  -86.1904   34.6661   -2.7474 H   0  0  0  0  0  0  0  0  0  0  0  0
  -88.5239   34.9762   -4.5617 C   0  0  0  0  0  0  0  0  0  0  0  0
  -88.2229   35.5286   -5.7868 C   0  0  0  0  0  0  0  0  0  0  0  0
  -88.3810   36.8688   -6.0641 C   0  0  0  0  0  0  0  0  0  0  0  0
  -88.8580   37.6908   -5.0824 C   0  0  0  0  0  0  0  0  0  0  0  0
  -89.1723   37.1738   -3.8366 C   0  0  0  0  0  0  0  0  0  0  0  0
  -89.0054   35.8263   -3.5814 C   0  0  0  0  0  0  0  0  0  0  0  0
  8  9  1  0  0  0
  9  2  1  0  0  0
  2 11  1  0  0  0
 11 12  1  0  0  0
 12 13  2  0  0  0
 13 14  1  0  0  0
 14 15  2  0  0  0
 15 16  1  0  0  0
 16 17  2  0  0  0
  2  3  1  0  0  0
  3  4  1  0  0  0
  4  5  1  0  0  0
  5  6  1  0  0  0
  6  7  1  0  0  0
  5  1  1  0  0  0
  1 18  1  0  0  0
 18 19  2  0  0  0
 18 20  1  0  0  0
 20 21  1  0  0  0
 21 22  2  0  0  0
 22 23  1  0  0  0
 22 24  1  0  0  0
 24 25  1  0  0  0
 25 26  2  0  0  0
 24 29  1  0  0  0
 29 30  2  0  0  0
 30 31  1  0  0  0
 31 32  2  0  0  0
 32 33  1  0  0  0
 33 34  2  0  0  0
  7  2  1  0  0  0
 25 20  1  0  0  0
 34 29  1  0  0  0
 17 12  1  0  0  0
  8 10  1  0  0  0
 23 27  1  0  0  0
 23 28  1  0  0  0
M  END
> <minimizedAffinity>
-8.02958

> <CNNscore>
0.2310011387

> <CNNaffinity>
5.7924470901

> <CNN_VS>
1.3380619287

> <CNNaffinity_variance>
0.1550911367

$$$$
[H]OC([H])([H])C1(C([H])([H])c2c([H])c([H])c([H])c([H])c2[H])C([H])([H])C([H])([H])C([H])(OC(=O)C2([H])N=C(N([H])[H])N(c3c([H])c([H])c([H])c([H])c3[H])C2=O)C([H])([H])C1([H])[H]


 34 37  0  0  0  0  0  0  0  0999 V2000
  -89.7654   30.4450   -3.8048 O   0  0  0  0  0  0  0  0  0  0  0  0
  -87.2409   33.3147   -1.9805 C   0  0  0  0  0  0  0  0  0  0  0  0
  -88.5395   32.7560   -1.3720 C   0  0  0  0  0  0  0  0  0  0  0  0
  -89.5320   32.4576   -2.4713 C   0  0  0  0  0  0  0  0  0  0  0  0
  -88.9189   31.5117   -3.4363 C   0  0  0  0  0  0  0  0  0  0  0  0
  -87.5698   31.0881   -2.9974 C   0  0  0  0  0  0  0  0  0  0  0  0
  -86.6329   32.2847   -2.8724 C   0  0  0  0  0  0  0  0  0  0  0  0
  -86.6783   34.6990   -3.8795 O   0  0  0  0  0  0  0  0  0  0  0  0
  -87.5789   34.5449   -2.8314 C   0  0  0  0  0  0  0  0  0  0  0  0
  -87.0828   34.5840   -4.7738 H   0  0  0  0  0  0  0  0  0  0  0  0
  -86.3691   33.7807   -0.8806 C   0  0  0  0  0  0  0  0  0  0  0  0
  -85.2801   32.8803   -0.4595 C   0  0  0  0  0  0  0  0  0  0  0  0
  -83.9465   33.0948   -0.7429 C   0  0  0  0  0  0  0  0  0  0  0  0
  -82.9607   32.2106   -0.3191 C   0  0  0  0  0  0  0  0  0  0  0  0
  -83.2735   31.0828    0.4022 C   0  0  0  0  0  0  0  0  0  0  0  0
  -84.5974   30.8500    0.6963 C   0  0  0  0  0  0  0  0  0  0  0  0
  -85.5558   31.7402    0.2653 C   0  0  0  0  0  0  0  0  0  0  0  0
  -90.5497   29.7146   -2.9528 C   0  0  0  0  0  0  0  0  0  0  0  0
  -91.7278   30.1742   -2.7755 O   0  0  0  0  0  0  0  0  0  0  0  0
  -90.0704   28.4846   -2.2854 C   0  0  0  0  0  0  0  0  0  0  0  0
  -91.1475   27.5703   -2.1218 N   0  0  0  0  0  0  0  0  0  0  0  0
  -91.3710   27.2524   -0.9034 C   0  0  0  0  0  0  0  0  0  0  0  0
  -92.3904   26.3514   -0.4065 N   0  0  0  0  0  0  0  0  0  0  0  0
  -90.4441   27.9250   -0.0705 N   0  0  0  0  0  0  0  0  0  0  0  0
  -89.6071   28.7054   -0.9061 C   0  0  0  0  0  0  0  0  0  0  0  0
  -88.6750   29.4220   -0.5076 O   0  0  0  0  0  0  0  0  0  0  0  0
  -92.6470   25.5121   -0.9598 H   0  0  0  0  0  0  0  0  0  0  0  0
  -92.8848   26.5106    0.4957 H   0  0  0  0  0  0  0  0  0  0  0  0
  -90.3699   27.8289    1.3736 C   0  0  0  0  0  0  0  0  0  0  0  0
  -89.5500   26.9155    1.9983 C   0  0  0  0  0  0  0  0  0  0  0  0
  -89.4599   26.8028    3.3683 C   0  0  0  0  0  0  0  0  0  0  0  0
  -90.2164   27.6329    4.1467 C   0  0  0  0  0  0  0  0  0  0  0  0
  -91.0537   28.5651    3.5568 C   0  0  0  0  0  0  0  0  0  0  0  0
  -91.1276   28.6599    2.1805 C   0  0  0  0  0  0  0  0  0  0  0  0
  8  9  1  0  0  0
  9  2  1  0  0  0
  2 11  1  0  0  0
 11 12  1  0  0  0
 12 13  2  0  0  0
 13 14  1  0  0  0
 14 15  2  0  0  0
 15 16  1  0  0  0
 16 17  2  0  0  0
  2  3  1  0  0  0
  3  4  1  0  0  0
  4  5  1  0  0  0
  5  6  1  0  0  0
  6  7  1  0  0  0
  5  1  1  0  0  0
  1 18  1  0  0  0
 18 19  2  0  0  0
 18 20  1  0  0  0
 20 21  1  0  0  0
 21 22  2  0  0  0
 22 23  1  0  0  0
 22 24  1  0  0  0
 24 25  1  0  0  0
 25 26  2  0  0  0
 24 29  1  0  0  0
 29 30  2  0  0  0
 30 31  1  0  0  0
 31 32  2  0  0  0
 32 33  1  0  0  0
 33 34  2  0  0  0
  7  2  1  0  0  0
 25 20  1  0  0  0
 34 29  1  0  0  0
 17 12  1  0  0  0
  8 10  1  0  0  0
 23 27  1  0  0  0
 23 28  1  0  0  0
M  END
> <minimizedAffinity>
-8.95251

> <CNNscore>
0.2273849845

> <CNNaffinity>
6.0760326385

> <CNN_VS>
1.3815985918

> <CNNaffinity_variance>
0.1819960326

$$$$
[H]OC([H])([H])C1(C([H])([H])c2c([H])c([H])c([H])c([H])c2[H])C([H])([H])C([H])([H])C([H])(OC(=O)C2([H])N=C(N([H])[H])N(c3c([H])c([H])c([H])c([H])c3[H])C2=O)C([H])([H])C1([H])[H]


 34 37  0  0  0  0  0  0  0  0999 V2000
  -88.9712   29.9958   -3.6988 O   0  0  0  0  0  0  0  0  0  0  0  0
  -87.3121   28.7628   -0.0024 C   0  0  0  0  0  0  0  0  0  0  0  0
  -87.0114   28.1250   -1.3705 C   0  0  0  0  0  0  0  0  0  0  0  0
  -88.2391   28.1950   -2.2481 C   0  0  0  0  0  0  0  0  0  0  0  0
  -88.6647   29.6107   -2.3767 C   0  0  0  0  0  0  0  0  0  0  0  0
  -87.7274   30.5236   -1.6837 C   0  0  0  0  0  0  0  0  0  0  0  0
  -87.6497   30.2032   -0.1949 C   0  0  0  0  0  0  0  0  0  0  0  0
  -88.1794   26.8463    1.1867 O   0  0  0  0  0  0  0  0  0  0  0  0
  -88.5297   28.0645    0.6154 C   0  0  0  0  0  0  0  0  0  0  0  0
  -88.2872   26.8200    2.1687 H   0  0  0  0  0  0  0  0  0  0  0  0
  -86.1676   28.5051    0.8980 C   0  0  0  0  0  0  0  0  0  0  0  0
  -85.2317   29.6204    1.1303 C   0  0  0  0  0  0  0  0  0  0  0  0
  -85.2282   30.4025    2.2674 C   0  0  0  0  0  0  0  0  0  0  0  0
  -84.3203   31.4425    2.4330 C   0  0  0  0  0  0  0  0  0  0  0  0
  -83.3854   31.7362    1.4688 C   0  0  0  0  0  0  0  0  0  0  0  0
  -83.3710   30.9683    0.3271 C   0  0  0  0  0  0  0  0  0  0  0  0
  -84.2804   29.9437    0.1859 C   0  0  0  0  0  0  0  0  0  0  0  0
  -88.6932   31.2119   -4.2631 C   0  0  0  0  0  0  0  0  0  0  0  0
  -87.6635   31.2342   -5.0179 O   0  0  0  0  0  0  0  0  0  0  0  0
  -89.5218   32.4124   -4.0176 C   0  0  0  0  0  0  0  0  0  0  0  0
  -90.0130   32.9232   -5.2508 N   0  0  0  0  0  0  0  0  0  0  0  0
  -89.6585   34.1295   -5.4849 C   0  0  0  0  0  0  0  0  0  0  0  0
  -89.9904   34.9300   -6.6453 N   0  0  0  0  0  0  0  0  0  0  0  0
  -88.8683   34.5986   -4.4074 N   0  0  0  0  0  0  0  0  0  0  0  0
  -88.7655   33.5467   -3.4636 C   0  0  0  0  0  0  0  0  0  0  0  0
  -88.1462   33.6141   -2.3897 O   0  0  0  0  0  0  0  0  0  0  0  0
  -90.9223   34.8275   -7.0898 H   0  0  0  0  0  0  0  0  0  0  0  0
  -89.3251   35.6151   -7.0600 H   0  0  0  0  0  0  0  0  0  0  0  0
  -88.2751   35.9162   -4.2959 C   0  0  0  0  0  0  0  0  0  0  0  0
  -88.8684   36.9185   -3.5609 C   0  0  0  0  0  0  0  0  0  0  0  0
  -88.3267   38.1792   -3.4380 C   0  0  0  0  0  0  0  0  0  0  0  0
  -87.1474   38.4519   -4.0721 C   0  0  0  0  0  0  0  0  0  0  0  0
  -86.5194   37.4709   -4.8211 C   0  0  0  0  0  0  0  0  0  0  0  0
  -87.0815   36.2136   -4.9302 C   0  0  0  0  0  0  0  0  0  0  0  0
  8  9  1  0  0  0
  9  2  1  0  0  0
  2 11  1  0  0  0
 11 12  1  0  0  0
 12 13  2  0  0  0
 13 14  1  0  0  0
 14 15  2  0  0  0
 15 16  1  0  0  0
 16 17  2  0  0  0
  2  3  1  0  0  0
  3  4  1  0  0  0
  4  5  1  0  0  0
  5  6  1  0  0  0
  6  7  1  0  0  0
  5  1  1  0  0  0
  1 18  1  0  0  0
 18 19  2  0  0  0
 18 20  1  0  0  0
 20 21  1  0  0  0
 21 22  2  0  0  0
 22 23  1  0  0  0
 22 24  1  0  0  0
 24 25  1  0  0  0
 25 26  2  0  0  0
 24 29  1  0  0  0
 29 30  2  0  0  0
 30 31  1  0  0  0
 31 32  2  0  0  0
 32 33  1  0  0  0
 33 34  2  0  0  0
  7  2  1  0  0  0
 25 20  1  0  0  0
 34 29  1  0  0  0
 17 12  1  0  0  0
  8 10  1  0  0  0
 23 27  1  0  0  0
 23 28  1  0  0  0
M  END
> <minimizedAffinity>
-8.88717

> <CNNscore>
0.2221600115

> <CNNaffinity>
6.0030126572

> <CNN_VS>
1.3336293697

> <CNNaffinity_variance>
0.2145021707

$$$$
[H]OC([H])([H])C1(C([H])([H])c2c([H])c([H])c([H])c([H])c2[H])C([H])([H])C([H])([H])C([H])(OC(=O)C2([H])N=C(N([H])[H])N(c3c([H])c([H])c([H])c([H])c3[H])C2=O)C([H])([H])C1([H])[H]


 34 37  0  0  0  0  0  0  0  0999 V2000
  -90.2803   28.1836   -3.1565 O   0  0  0  0  0  0  0  0  0  0  0  0
  -88.3016   27.0449    0.4107 C   0  0  0  0  0  0  0  0  0  0  0  0
  -87.8988   28.2231   -0.4939 C   0  0  0  0  0  0  0  0  0  0  0  0
  -88.2055   27.8892   -1.9351 C   0  0  0  0  0  0  0  0  0  0  0  0
  -89.6466   27.5591   -2.0616 C   0  0  0  0  0  0  0  0  0  0  0  0
  -90.3571   27.7311   -0.7741 C   0  0  0  0  0  0  0  0  0  0  0  0
  -89.7726   26.8210    0.3008 C   0  0  0  0  0  0  0  0  0  0  0  0
  -88.4227   24.6682   -0.0084 O   0  0  0  0  0  0  0  0  0  0  0  0
  -87.5873   25.7777   -0.0748 C   0  0  0  0  0  0  0  0  0  0  0  0
  -88.6464   24.2833   -0.8907 H   0  0  0  0  0  0  0  0  0  0  0  0
  -87.8122   27.3149    1.7799 C   0  0  0  0  0  0  0  0  0  0  0  0
  -88.7170   26.9797    2.8947 C   0  0  0  0  0  0  0  0  0  0  0  0
  -89.4979   27.9024    3.5606 C   0  0  0  0  0  0  0  0  0  0  0  0
  -90.3347   27.5287    4.6062 C   0  0  0  0  0  0  0  0  0  0  0  0
  -90.4200   26.2210    5.0217 C   0  0  0  0  0  0  0  0  0  0  0  0
  -89.6502   25.2844    4.3709 C   0  0  0  0  0  0  0  0  0  0  0  0
  -88.8288   25.6789    3.3382 C   0  0  0  0  0  0  0  0  0  0  0  0
  -91.1188   29.2637   -3.0863 C   0  0  0  0  0  0  0  0  0  0  0  0
  -92.3482   28.9809   -2.8881 O   0  0  0  0  0  0  0  0  0  0  0  0
  -90.6392   30.6556   -3.2298 C   0  0  0  0  0  0  0  0  0  0  0  0
  -89.6693   30.7299   -4.2673 N   0  0  0  0  0  0  0  0  0  0  0  0
  -88.5322   31.1665   -3.8774 C   0  0  0  0  0  0  0  0  0  0  0  0
  -87.3443   31.3575   -4.6836 N   0  0  0  0  0  0  0  0  0  0  0  0
  -88.5959   31.4554   -2.4925 N   0  0  0  0  0  0  0  0  0  0  0  0
  -89.9080   31.1508   -2.0526 C   0  0  0  0  0  0  0  0  0  0  0  0
  -90.3173   31.2906   -0.8889 O   0  0  0  0  0  0  0  0  0  0  0  0
  -87.4373   31.6762   -5.6666 H   0  0  0  0  0  0  0  0  0  0  0  0
  -86.3857   31.1869   -4.3149 H   0  0  0  0  0  0  0  0  0  0  0  0
  -87.5126   31.9690   -1.6782 C   0  0  0  0  0  0  0  0  0  0  0  0
  -86.8452   31.1732   -0.7738 C   0  0  0  0  0  0  0  0  0  0  0  0
  -85.8125   31.6352    0.0123 C   0  0  0  0  0  0  0  0  0  0  0  0
  -85.4294   32.9414   -0.1076 C   0  0  0  0  0  0  0  0  0  0  0  0
  -86.0757   33.7742   -1.0058 C   0  0  0  0  0  0  0  0  0  0  0  0
  -87.1090   33.2887   -1.7837 C   0  0  0  0  0  0  0  0  0  0  0  0
  8  9  1  0  0  0
  9  2  1  0  0  0
  2 11  1  0  0  0
 11 12  1  0  0  0
 12 13  2  0  0  0
 13 14  1  0  0  0
 14 15  2  0  0  0
 15 16  1  0  0  0
 16 17  2  0  0  0
  2  3  1  0  0  0
  3  4  1  0  0  0
  4  5  1  0  0  0
  5  6  1  0  0  0
  6  7  1  0  0  0
  5  1  1  0  0  0
  1 18  1  0  0  0
 18 19  2  0  0  0
 18 20  1  0  0  0
 20 21  1  0  0  0
 21 22  2  0  0  0
 22 23  1  0  0  0
 22 24  1  0  0  0
 24 25  1  0  0  0
 25 26  2  0  0  0
 24 29  1  0  0  0
 29 30  2  0  0  0
 30 31  1  0  0  0
 31 32  2  0  0  0
 32 33  1  0  0  0
 33 34  2  0  0  0
  7  2  1  0  0  0
 25 20  1  0  0  0
 34 29  1  0  0  0
 17 12  1  0  0  0
  8 10  1  0  0  0
 23 27  1  0  0  0
 23 28  1  0  0  0
M  END
> <minimizedAffinity>
-8.39147

> <CNNscore>
0.2008673549

> <CNNaffinity>
6.0843191147

> <CNN_VS>
1.2221410275

> <CNNaffinity_variance>
0.1117209941

$$$$
[H]OC([H])([H])C1(C([H])([H])c2c([H])c([H])c([H])c([H])c2[H])C([H])([H])C([H])([H])C([H])(OC(=O)C2([H])N=C(N([H])[H])N(c3c([H])c([H])c([H])c([H])c3[H])C2=O)C([H])([H])C1([H])[H]


 34 37  0  0  0  0  0  0  0  0999 V2000
  -87.7478   32.1979   -3.8559 O   0  0  0  0  0  0  0  0  0  0  0  0
  -89.7001   35.6213   -5.4070 C   0  0  0  0  0  0  0  0  0  0  0  0
  -88.2377   35.2284   -5.6830 C   0  0  0  0  0  0  0  0  0  0  0  0
  -87.6549   34.5428   -4.4694 C   0  0  0  0  0  0  0  0  0  0  0  0
  -88.4913   33.3657   -4.1275 C   0  0  0  0  0  0  0  0  0  0  0  0
  -89.5822   33.1723   -5.1097 C   0  0  0  0  0  0  0  0  0  0  0  0
  -90.5013   34.3883   -5.1550 C   0  0  0  0  0  0  0  0  0  0  0  0
  -90.9514   37.1901   -4.0609 O   0  0  0  0  0  0  0  0  0  0  0  0
  -89.7521   36.4917   -4.1456 C   0  0  0  0  0  0  0  0  0  0  0  0
  -91.5182   36.9194   -3.2980 H   0  0  0  0  0  0  0  0  0  0  0  0
  -90.1806   36.4598   -6.5264 C   0  0  0  0  0  0  0  0  0  0  0  0
  -91.1713   35.8589   -7.4383 C   0  0  0  0  0  0  0  0  0  0  0  0
  -90.8719   34.8918   -8.3762 C   0  0  0  0  0  0  0  0  0  0  0  0
  -91.8485   34.3596   -9.2107 C   0  0  0  0  0  0  0  0  0  0  0  0
  -93.1569   34.7751   -9.1362 C   0  0  0  0  0  0  0  0  0  0  0  0
  -93.4774   35.7383   -8.2073 C   0  0  0  0  0  0  0  0  0  0  0  0
  -92.4926   36.2505   -7.3921 C   0  0  0  0  0  0  0  0  0  0  0  0
  -88.1302   31.1816   -3.0221 C   0  0  0  0  0  0  0  0  0  0  0  0
  -88.5475   30.1281   -3.6109 O   0  0  0  0  0  0  0  0  0  0  0  0
  -88.0665   31.2930   -1.5484 C   0  0  0  0  0  0  0  0  0  0  0  0
  -87.5308   32.5581   -1.1804 N   0  0  0  0  0  0  0  0  0  0  0  0
  -86.4662   32.4799   -0.4760 C   0  0  0  0  0  0  0  0  0  0  0  0
  -85.6836   33.5779    0.0526 N   0  0  0  0  0  0  0  0  0  0  0  0
  -86.1453   31.1161   -0.2694 N   0  0  0  0  0  0  0  0  0  0  0  0
  -87.1332   30.3408   -0.9257 C   0  0  0  0  0  0  0  0  0  0  0  0
  -87.1652   29.0999   -0.9449 O   0  0  0  0  0  0  0  0  0  0  0  0
  -86.1619   34.4405    0.3745 H   0  0  0  0  0  0  0  0  0  0  0  0
  -84.6458   33.5396    0.1256 H   0  0  0  0  0  0  0  0  0  0  0  0
  -85.0111   30.6112    0.4782 C   0  0  0  0  0  0  0  0  0  0  0  0
  -83.7149   30.8859    0.1025 C   0  0  0  0  0  0  0  0  0  0  0  0
  -82.6188   30.4192    0.7944 C   0  0  0  0  0  0  0  0  0  0  0  0
  -82.8222   29.6488    1.9045 C   0  0  0  0  0  0  0  0  0  0  0  0
  -84.1106   29.3499    2.3150 C   0  0  0  0  0  0  0  0  0  0  0  0
  -85.1947   29.8290    1.6052 C   0  0  0  0  0  0  0  0  0  0  0  0
  8  9  1  0  0  0
  9  2  1  0  0  0
  2 11  1  0  0  0
 11 12  1  0  0  0
 12 13  2  0  0  0
 13 14  1  0  0  0
 14 15  2  0  0  0
 15 16  1  0  0  0
 16 17  2  0  0  0
  2  3  1  0  0  0
  3  4  1  0  0  0
  4  5  1  0  0  0
  5  6  1  0  0  0
  6  7  1  0  0  0
  5  1  1  0  0  0
  1 18  1  0  0  0
 18 19  2  0  0  0
 18 20  1  0  0  0
 20 21  1  0  0  0
 21 22  2  0  0  0
 22 23  1  0  0  0
 22 24  1  0  0  0
 24 25  1  0  0  0
 25 26  2  0  0  0
 24 29  1  0  0  0
 29 30  2  0  0  0
 30 31  1  0  0  0
 31 32  2  0  0  0
 32 33  1  0  0  0
 33 34  2  0  0  0
  7  2  1  0  0  0
 25 20  1  0  0  0
 34 29  1  0  0  0
 17 12  1  0  0  0
  8 10  1  0  0  0
 23 27  1  0  0  0
 23 28  1  0  0  0
M  END
> <minimizedAffinity>
-7.71103

> <CNNscore>
0.1831906438

> <CNNaffinity>
5.6047372818

> <CNN_VS>
1.0267354250

> <CNNaffinity_variance>
0.0676443949

$$$$
[H]OC([H])([H])C1(C([H])([H])c2c([H])c([H])c([H])c([H])c2[H])C([H])([H])C([H])([H])C([H])(OC(=O)C2([H])N=C(N([H])[H])N(c3c([H])c([H])c([H])c([H])c3[H])C2=O)C([H])([H])C1([H])[H]


 34 37  0  0  0  0  0  0  0  0999 V2000
  -87.7289   30.2843    0.0387 O   0  0  0  0  0  0  0  0  0  0  0  0
  -88.4797   32.3464   -3.5835 C   0  0  0  0  0  0  0  0  0  0  0  0
  -89.5118   31.5137   -2.8024 C   0  0  0  0  0  0  0  0  0  0  0  0
  -88.8238   30.3519   -2.1246 C   0  0  0  0  0  0  0  0  0  0  0  0
  -87.7476   30.8705   -1.2444 C   0  0  0  0  0  0  0  0  0  0  0  0
  -87.7235   32.3508   -1.2324 C   0  0  0  0  0  0  0  0  0  0  0  0
  -87.4774   32.9067   -2.6309 C   0  0  0  0  0  0  0  0  0  0  0  0
  -88.5894   30.9895   -5.5799 O   0  0  0  0  0  0  0  0  0  0  0  0
  -87.7434   31.4300   -4.5683 C   0  0  0  0  0  0  0  0  0  0  0  0
  -88.3466   31.3239   -6.4776 H   0  0  0  0  0  0  0  0  0  0  0  0
  -89.2022   33.3520   -4.3921 C   0  0  0  0  0  0  0  0  0  0  0  0
  -88.6596   34.7230   -4.3998 C   0  0  0  0  0  0  0  0  0  0  0  0
  -87.6520   35.1508   -5.2403 C   0  0  0  0  0  0  0  0  0  0  0  0
  -87.1793   36.4579   -5.2040 C   0  0  0  0  0  0  0  0  0  0  0  0
  -87.6971   37.3816   -4.3273 C   0  0  0  0  0  0  0  0  0  0  0  0
  -88.7031   36.9762   -3.4805 C   0  0  0  0  0  0  0  0  0  0  0  0
  -89.1545   35.6762   -3.5351 C   0  0  0  0  0  0  0  0  0  0  0  0
  -87.1509   29.0862    0.3629 C   0  0  0  0  0  0  0  0  0  0  0  0
  -85.8741   29.0794    0.3415 O   0  0  0  0  0  0  0  0  0  0  0  0
  -87.9438   27.8872    0.7116 C   0  0  0  0  0  0  0  0  0  0  0  0
  -87.5696   26.7985   -0.1235 N   0  0  0  0  0  0  0  0  0  0  0  0
  -88.5368   26.3229   -0.8120 C   0  0  0  0  0  0  0  0  0  0  0  0
  -88.4844   25.2218   -1.7514 N   0  0  0  0  0  0  0  0  0  0  0  0
  -89.7176   27.0461   -0.5150 N   0  0  0  0  0  0  0  0  0  0  0  0
  -89.3833   28.0347    0.4433 C   0  0  0  0  0  0  0  0  0  0  0  0
  -90.1833   28.8473    0.9343 O   0  0  0  0  0  0  0  0  0  0  0  0
  -87.8611   24.4145   -1.5612 H   0  0  0  0  0  0  0  0  0  0  0  0
  -89.0537   25.2036   -2.6228 H   0  0  0  0  0  0  0  0  0  0  0  0
  -91.0272   26.8128   -1.0902 C   0  0  0  0  0  0  0  0  0  0  0  0
  -91.9370   25.9633   -0.5008 C   0  0  0  0  0  0  0  0  0  0  0  0
  -93.1880   25.7235   -1.0256 C   0  0  0  0  0  0  0  0  0  0  0  0
  -93.5468   26.3552   -2.1830 C   0  0  0  0  0  0  0  0  0  0  0  0
  -92.6601   27.2171   -2.8065 C   0  0  0  0  0  0  0  0  0  0  0  0
  -91.4107   27.4421   -2.2618 C   0  0  0  0  0  0  0  0  0  0  0  0
  8  9  1  0  0  0
  9  2  1  0  0  0
  2 11  1  0  0  0
 11 12  1  0  0  0
 12 13  2  0  0  0
 13 14  1  0  0  0
 14 15  2  0  0  0
 15 16  1  0  0  0
 16 17  2  0  0  0
  2  3  1  0  0  0
  3  4  1  0  0  0
  4  5  1  0  0  0
  5  6  1  0  0  0
  6  7  1  0  0  0
  5  1  1  0  0  0
  1 18  1  0  0  0
 18 19  2  0  0  0
 18 20  1  0  0  0
 20 21  1  0  0  0
 21 22  2  0  0  0
 22 23  1  0  0  0
 22 24  1  0  0  0
 24 25  1  0  0  0
 25 26  2  0  0  0
 24 29  1  0  0  0
 29 30  2  0  0  0
 30 31  1  0  0  0
 31 32  2  0  0  0
 32 33  1  0  0  0
 33 34  2  0  0  0
  7  2  1  0  0  0
 25 20  1  0  0  0
 34 29  1  0  0  0
 17 12  1  0  0  0
  8 10  1  0  0  0
 23 27  1  0  0  0
 23 28  1  0  0  0
M  END
> <minimizedAffinity>
-7.44688

> <CNNscore>
0.1825296879

> <CNNaffinity>
5.6971869469

> <CNN_VS>
1.0399057865

> <CNNaffinity_variance>
0.1813146919

$$$$
[H]c1c([H])c([H])c(C(=O)N([H])[C@]([H])(C(=O)N([H])[C@]([H])(C(=O)N([H])[C@]([H])(C(=O)N([H])[C@]([H])(C(=O)N2C([H])([H])C([H])([H])C([H])([H])[C@]2([H])C(=O)N([H])[H])C([H])([H])C([H])(C([H])([H])[H])C([H])([H])[H])C([H])([H])C([H])(C([H])([H])[H])C([H])([H])[H])C([H])([H])C([H])(C([H])([H])[H])C([H])([H])[H])C([H])([H])c2c([H])c([H])c([H])c([H])c2[H])c([H])c1[H]


 57 59  0  0  0  0  0  0  0  0999 V2000
  -90.0419   31.5954   -3.8401 C   0  0  0  0  0  0  0  0  0  0  0  0
  -89.9306   30.6446   -4.6584 O   0  0  0  0  0  0  0  0  0  0  0  0
  -91.1262   32.4982   -4.0311 N   0  0  0  0  0  0  0  0  0  0  0  0
  -91.1788   33.2829   -3.3153 H   0  0  0  0  0  0  0  0  0  0  0  0
  -89.0524   31.7285   -2.7348 C   0  0  0  0  0  0  0  0  0  0  0  0
  -89.3583   30.3549   -0.6421 C   0  0  0  0  0  0  0  0  0  0  0  0
  -89.8980   31.3152   -0.0825 O   0  0  0  0  0  0  0  0  0  0  0  0
  -88.9166   30.5258   -1.9800 N   0  0  0  0  0  0  0  0  0  0  0  0
  -88.4636   29.7058   -2.4550 H   0  0  0  0  0  0  0  0  0  0  0  0
  -89.1789   29.0800    0.0618 C   0  0  0  0  0  0  0  0  0  0  0  0
  -86.6833   28.9389    0.2399 C   0  0  0  0  0  0  0  0  0  0  0  0
  -86.6289   28.9364   -1.0153 O   0  0  0  0  0  0  0  0  0  0  0  0
  -87.9513   29.0100    0.8491 N   0  0  0  0  0  0  0  0  0  0  0  0
  -88.0903   29.0154    1.8818 H   0  0  0  0  0  0  0  0  0  0  0  0
  -85.4457   28.8697    0.9623 C   0  0  0  0  0  0  0  0  0  0  0  0
  -85.2103   27.8355    1.8329 C   0  0  0  0  0  0  0  0  0  0  0  0
  -84.0361   27.7026    2.5689 C   0  0  0  0  0  0  0  0  0  0  0  0
  -83.0445   28.6609    2.4218 C   0  0  0  0  0  0  0  0  0  0  0  0
  -83.2797   29.6958    1.5507 C   0  0  0  0  0  0  0  0  0  0  0  0
  -84.4434   29.8197    0.8270 C   0  0  0  0  0  0  0  0  0  0  0  0
  -90.3458   28.6905    0.9282 C   0  0  0  0  0  0  0  0  0  0  0  0
  -90.0471   27.7801    2.0098 C   0  0  0  0  0  0  0  0  0  0  0  0
  -90.5063   28.0993    3.2783 C   0  0  0  0  0  0  0  0  0  0  0  0
  -90.2762   27.2921    4.3696 C   0  0  0  0  0  0  0  0  0  0  0  0
  -89.5575   26.1029    4.2270 C   0  0  0  0  0  0  0  0  0  0  0  0
  -89.0956   25.7755    2.9688 C   0  0  0  0  0  0  0  0  0  0  0  0
  -89.3325   26.5916    1.8839 C   0  0  0  0  0  0  0  0  0  0  0  0
  -87.7514   32.3028   -3.2539 C   0  0  0  0  0  0  0  0  0  0  0  0
  -87.3924   33.6587   -2.7849 C   0  0  0  0  0  0  0  0  0  0  0  0
  -87.1516   34.6926   -3.8499 C   0  0  0  0  0  0  0  0  0  0  0  0
  -86.0773   33.5114   -2.0040 C   0  0  0  0  0  0  0  0  0  0  0  0
  -92.0818   32.3950   -5.0822 C   0  0  0  0  0  0  0  0  0  0  0  0
  -92.0526   33.4667   -6.0875 C   0  0  0  0  0  0  0  0  0  0  0  0
  -92.4772   33.2761   -7.2488 O   0  0  0  0  0  0  0  0  0  0  0  0
  -91.5393   34.7632   -5.7962 N   0  0  0  0  0  0  0  0  0  0  0  0
  -91.1702   35.0123   -4.8631 H   0  0  0  0  0  0  0  0  0  0  0  0
  -91.4969   35.8426   -6.7964 C   0  0  0  0  0  0  0  0  0  0  0  0
  -90.3242   36.7037   -6.5736 C   0  0  0  0  0  0  0  0  0  0  0  0
  -89.9467   36.7568   -5.3282 O   0  0  0  0  0  0  0  0  0  0  0  0
  -89.5800   37.4448   -7.4630 N   0  0  0  0  0  0  0  0  0  0  0  0
  -89.6900   37.5984   -8.8811 C   0  0  0  0  0  0  0  0  0  0  0  0
  -89.3465   39.0589   -9.1479 C   0  0  0  0  0  0  0  0  0  0  0  0
  -88.5671   39.5068   -7.9508 C   0  0  0  0  0  0  0  0  0  0  0  0
  -88.4298   38.2936   -7.1005 C   0  0  0  0  0  0  0  0  0  0  0  0
  -87.1521   37.6216   -7.4472 C   0  0  0  0  0  0  0  0  0  0  0  0
  -86.1357   38.3817   -8.0605 N   0  0  0  0  0  0  0  0  0  0  0  0
  -86.9122   36.4069   -7.2287 O   0  0  0  0  0  0  0  0  0  0  0  0
  -86.3828   39.1520   -8.6976 H   0  0  0  0  0  0  0  0  0  0  0  0
  -85.1448   38.1658   -7.8723 H   0  0  0  0  0  0  0  0  0  0  0  0
  -92.8173   36.5780   -6.7715 C   0  0  0  0  0  0  0  0  0  0  0  0
  -93.3817   36.7565   -8.1662 C   0  0  0  0  0  0  0  0  0  0  0  0
  -94.8591   36.3863   -8.0670 C   0  0  0  0  0  0  0  0  0  0  0  0
  -93.3556   38.1963   -8.6310 C   0  0  0  0  0  0  0  0  0  0  0  0
  -93.4563   32.1804   -4.5030 C   0  0  0  0  0  0  0  0  0  0  0  0
  -93.9087   30.7469   -4.5165 C   0  0  0  0  0  0  0  0  0  0  0  0
  -93.2357   30.0523   -5.7120 C   0  0  0  0  0  0  0  0  0  0  0  0
  -93.4568   29.9746   -3.2965 C   0  0  0  0  0  0  0  0  0  0  0  0
 15 11  1  0  0  0
 11 12  2  0  0  0
 11 13  1  0  0  0
 13 10  1  0  0  0
 10 21  1  0  0  0
 21 22  1  0  0  0
 22 23  2  0  0  0
 23 24  1  0  0  0
 24 25  2  0  0  0
 25 26  1  0  0  0
 26 27  2  0  0  0
 10  6  1  0  0  0
  6  7  2  0  0  0
  6  8  1  0  0  0
  8  5  1  0  0  0
  5 28  1  0  0  0
 28 29  1  0  0  0
 29 30  1  0  0  0
 29 31  1  0  0  0
  5  1  1  0  0  0
  1  2  2  0  0  0
  1  3  1  0  0  0
  3 32  1  0  0  0
 32 54  1  0  0  0
 54 55  1  0  0  0
 55 56  1  0  0  0
 55 57  1  0  0  0
 32 33  1  0  0  0
 33 34  2  0  0  0
 33 35  1  0  0  0
 35 37  1  0  0  0
 37 50  1  0  0  0
 50 51  1  0  0  0
 51 52  1  0  0  0
 51 53  1  0  0  0
 37 38  1  0  0  0
 38 39  2  0  0  0
 38 40  1  0  0  0
 40 41  1  0  0  0
 41 42  1  0  0  0
 42 43  1  0  0  0
 43 44  1  0  0  0
 44 45  1  0  0  0
 45 46  1  0  0  0
 45 47  2  0  0  0
 15 16  2  0  0  0
 16 17  1  0  0  0
 17 18  2  0  0  0
 18 19  1  0  0  0
 19 20  2  0  0  0
 20 15  1  0  0  0
 27 22  1  0  0  0
 44 40  1  0  0  0
 13 14  1  0  0  0
  8  9  1  0  0  0
  3  4  1  0  0  0
 35 36  1  0  0  0
 46 48  1  0  0  0
 46 49  1  0  0  0
M  END
> <minimizedAffinity>
-7.81194

> <CNNscore>
0.1601505429

> <CNNaffinity>
7.1359910965

> <CNN_VS>
1.1428328753

> <CNNaffinity_variance>
0.1344641000

$$$$
[H]c1c([H])c([H])c(C(=O)N([H])[C@]([H])(C(=O)N([H])[C@]([H])(C(=O)N([H])[C@]([H])(C(=O)N([H])[C@]([H])(C(=O)N2C([H])([H])C([H])([H])C([H])([H])[C@]2([H])C(=O)N([H])[H])C([H])([H])C([H])(C([H])([H])[H])C([H])([H])[H])C([H])([H])C([H])(C([H])([H])[H])C([H])([H])[H])C([H])([H])C([H])(C([H])([H])[H])C([H])([H])[H])C([H])([H])c2c([H])c([H])c([H])c([H])c2[H])c([H])c1[H]


 57 59  0  0  0  0  0  0  0  0999 V2000
  -90.0128   30.3328   -2.5304 C   0  0  0  0  0  0  0  0  0  0  0  0
  -89.8964   29.4130   -3.3826 O   0  0  0  0  0  0  0  0  0  0  0  0
  -89.6635   30.0248   -1.1849 N   0  0  0  0  0  0  0  0  0  0  0  0
  -89.7774   30.8329   -0.5030 H   0  0  0  0  0  0  0  0  0  0  0  0
  -90.5028   31.6716   -2.9618 C   0  0  0  0  0  0  0  0  0  0  0  0
  -88.3123   32.9027   -3.1760 C   0  0  0  0  0  0  0  0  0  0  0  0
  -87.9363   32.0981   -4.0349 O   0  0  0  0  0  0  0  0  0  0  0  0
  -89.6008   32.7191   -2.6099 N   0  0  0  0  0  0  0  0  0  0  0  0
  -89.9200   33.4082   -1.8843 H   0  0  0  0  0  0  0  0  0  0  0  0
  -87.4469   34.0105   -2.7553 C   0  0  0  0  0  0  0  0  0  0  0  0
  -86.2922   32.7736   -0.9070 C   0  0  0  0  0  0  0  0  0  0  0  0
  -87.4219   32.4251   -0.4818 O   0  0  0  0  0  0  0  0  0  0  0  0
  -86.2372   33.5810   -2.0599 N   0  0  0  0  0  0  0  0  0  0  0  0
  -85.3452   33.9177   -2.4803 H   0  0  0  0  0  0  0  0  0  0  0  0
  -85.1379   32.3212   -0.1849 C   0  0  0  0  0  0  0  0  0  0  0  0
  -85.2832   31.6830    1.0211 C   0  0  0  0  0  0  0  0  0  0  0  0
  -84.2117   31.2182    1.7787 C   0  0  0  0  0  0  0  0  0  0  0  0
  -82.9242   31.4048    1.2981 C   0  0  0  0  0  0  0  0  0  0  0  0
  -82.7785   32.0433    0.0913 C   0  0  0  0  0  0  0  0  0  0  0  0
  -83.8433   32.4997   -0.6512 C   0  0  0  0  0  0  0  0  0  0  0  0
  -87.0709   34.9495   -3.8693 C   0  0  0  0  0  0  0  0  0  0  0  0
  -88.1566   35.7164   -4.4360 C   0  0  0  0  0  0  0  0  0  0  0  0
  -88.2830   35.7489   -5.8161 C   0  0  0  0  0  0  0  0  0  0  0  0
  -89.2875   36.4473   -6.4474 C   0  0  0  0  0  0  0  0  0  0  0  0
  -90.2283   37.1588   -5.6993 C   0  0  0  0  0  0  0  0  0  0  0  0
  -90.1120   37.1333   -4.3247 C   0  0  0  0  0  0  0  0  0  0  0  0
  -89.1020   36.4303   -3.7042 C   0  0  0  0  0  0  0  0  0  0  0  0
  -90.9061   31.6440   -4.4206 C   0  0  0  0  0  0  0  0  0  0  0  0
  -92.0993   32.4347   -4.7928 C   0  0  0  0  0  0  0  0  0  0  0  0
  -93.0189   31.8185   -5.8106 C   0  0  0  0  0  0  0  0  0  0  0  0
  -91.5764   33.7446   -5.4026 C   0  0  0  0  0  0  0  0  0  0  0  0
  -89.1975   28.7521   -0.7471 C   0  0  0  0  0  0  0  0  0  0  0  0
  -90.2108   27.6914   -0.6551 C   0  0  0  0  0  0  0  0  0  0  0  0
  -91.0362   27.6651    0.2847 O   0  0  0  0  0  0  0  0  0  0  0  0
  -90.3009   26.6460   -1.6185 N   0  0  0  0  0  0  0  0  0  0  0  0
  -89.6629   26.5886   -2.4301 H   0  0  0  0  0  0  0  0  0  0  0  0
  -91.3057   25.5733   -1.5332 C   0  0  0  0  0  0  0  0  0  0  0  0
  -90.7865   24.4446   -0.7441 C   0  0  0  0  0  0  0  0  0  0  0  0
  -89.4928   24.3116   -0.8148 O   0  0  0  0  0  0  0  0  0  0  0  0
  -91.4464   23.5280    0.0425 N   0  0  0  0  0  0  0  0  0  0  0  0
  -92.8339   23.3910    0.3630 C   0  0  0  0  0  0  0  0  0  0  0  0
  -93.0826   21.8882    0.4059 C   0  0  0  0  0  0  0  0  0  0  0  0
  -91.7361   21.2705    0.6214 C   0  0  0  0  0  0  0  0  0  0  0  0
  -90.8012   22.4185    0.7688 C   0  0  0  0  0  0  0  0  0  0  0  0
  -90.6778   22.7387    2.2133 C   0  0  0  0  0  0  0  0  0  0  0  0
  -90.0332   23.9358    2.5854 N   0  0  0  0  0  0  0  0  0  0  0  0
  -91.1140   22.0065    3.1377 O   0  0  0  0  0  0  0  0  0  0  0  0
  -89.2589   24.3021    2.0141 H   0  0  0  0  0  0  0  0  0  0  0  0
  -90.3359   24.4440    3.4304 H   0  0  0  0  0  0  0  0  0  0  0  0
  -91.7374   25.2018   -2.9334 C   0  0  0  0  0  0  0  0  0  0  0  0
  -93.0325   25.8880   -3.3174 C   0  0  0  0  0  0  0  0  0  0  0  0
  -93.7455   26.1951   -2.0032 C   0  0  0  0  0  0  0  0  0  0  0  0
  -92.8123   27.2298   -3.9814 C   0  0  0  0  0  0  0  0  0  0  0  0
  -88.4047   28.9086    0.5247 C   0  0  0  0  0  0  0  0  0  0  0  0
  -87.1345   28.1053    0.5565 C   0  0  0  0  0  0  0  0  0  0  0  0
  -86.1694   28.7099   -0.4768 C   0  0  0  0  0  0  0  0  0  0  0  0
  -86.4121   28.1968    1.8827 C   0  0  0  0  0  0  0  0  0  0  0  0
 15 11  1  0  0  0
 11 12  2  0  0  0
 11 13  1  0  0  0
 13 10  1  0  0  0
 10 21  1  0  0  0
 21 22  1  0  0  0
 22 23  2  0  0  0
 23 24  1  0  0  0
 24 25  2  0  0  0
 25 26  1  0  0  0
 26 27  2  0  0  0
 10  6  1  0  0  0
  6  7  2  0  0  0
  6  8  1  0  0  0
  8  5  1  0  0  0
  5 28  1  0  0  0
 28 29  1  0  0  0
 29 30  1  0  0  0
 29 31  1  0  0  0
  5  1  1  0  0  0
  1  2  2  0  0  0
  1  3  1  0  0  0
  3 32  1  0  0  0
 32 54  1  0  0  0
 54 55  1  0  0  0
 55 56  1  0  0  0
 55 57  1  0  0  0
 32 33  1  0  0  0
 33 34  2  0  0  0
 33 35  1  0  0  0
 35 37  1  0  0  0
 37 50  1  0  0  0
 50 51  1  0  0  0
 51 52  1  0  0  0
 51 53  1  0  0  0
 37 38  1  0  0  0
 38 39  2  0  0  0
 38 40  1  0  0  0
 40 41  1  0  0  0
 41 42  1  0  0  0
 42 43  1  0  0  0
 43 44  1  0  0  0
 44 45  1  0  0  0
 45 46  1  0  0  0
 45 47  2  0  0  0
 15 16  2  0  0  0
 16 17  1  0  0  0
 17 18  2  0  0  0
 18 19  1  0  0  0
 19 20  2  0  0  0
 20 15  1  0  0  0
 27 22  1  0  0  0
 44 40  1  0  0  0
 13 14  1  0  0  0
  8  9  1  0  0  0
  3  4  1  0  0  0
 35 36  1  0  0  0
 46 48  1  0  0  0
 46 49  1  0  0  0
M  END
> <minimizedAffinity>
-8.28545

> <CNNscore>
0.1378099173

> <CNNaffinity>
6.9310188293

> <CNN_VS>
0.9551631212

> <CNNaffinity_variance>
0.8507019281

$$$$
[H]c1c([H])c([H])c(C(=O)N([H])[C@]([H])(C(=O)N([H])[C@]([H])(C(=O)N([H])[C@]([H])(C(=O)N([H])[C@]([H])(C(=O)N2C([H])([H])C([H])([H])C([H])([H])[C@]2([H])C(=O)N([H])[H])C([H])([H])C([H])(C([H])([H])[H])C([H])([H])[H])C([H])([H])C([H])(C([H])([H])[H])C([H])([H])[H])C([H])([H])C([H])(C([H])([H])[H])C([H])([H])[H])C([H])([H])c2c([H])c([H])c([H])c([H])c2[H])c([H])c1[H]


 57 59  0  0  0  0  0  0  0  0999 V2000
  -91.7583   29.6520   -3.2074 C   0  0  0  0  0  0  0  0  0  0  0  0
  -90.6959   28.9762   -3.1808 O   0  0  0  0  0  0  0  0  0  0  0  0
  -92.9687   28.9557   -3.4856 N   0  0  0  0  0  0  0  0  0  0  0  0
  -93.8380   29.5681   -3.4963 H   0  0  0  0  0  0  0  0  0  0  0  0
  -91.6986   31.1186   -2.9539 C   0  0  0  0  0  0  0  0  0  0  0  0
  -89.4930   31.9082   -2.0204 C   0  0  0  0  0  0  0  0  0  0  0  0
  -89.8883   31.6773   -0.8728 O   0  0  0  0  0  0  0  0  0  0  0  0
  -90.3789   31.6408   -3.0964 N   0  0  0  0  0  0  0  0  0  0  0  0
  -90.0379   31.8326   -4.0712 H   0  0  0  0  0  0  0  0  0  0  0  0
  -88.1485   32.4463   -2.2570 C   0  0  0  0  0  0  0  0  0  0  0  0
  -86.1567   32.4771   -0.7367 C   0  0  0  0  0  0  0  0  0  0  0  0
  -86.2354   33.7308   -0.7164 O   0  0  0  0  0  0  0  0  0  0  0  0
  -87.1007   31.7651   -1.5022 N   0  0  0  0  0  0  0  0  0  0  0  0
  -87.1092   30.7259   -1.5777 H   0  0  0  0  0  0  0  0  0  0  0  0
  -85.1081   31.8611    0.0246 C   0  0  0  0  0  0  0  0  0  0  0  0
  -83.7939   32.1227   -0.2712 C   0  0  0  0  0  0  0  0  0  0  0  0
  -82.7240   31.5619    0.4210 C   0  0  0  0  0  0  0  0  0  0  0  0
  -82.9893   30.6913    1.4674 C   0  0  0  0  0  0  0  0  0  0  0  0
  -84.3042   30.4295    1.7637 C   0  0  0  0  0  0  0  0  0  0  0  0
  -85.3559   30.9881    1.0742 C   0  0  0  0  0  0  0  0  0  0  0  0
  -87.7581   32.4994   -3.7092 C   0  0  0  0  0  0  0  0  0  0  0  0
  -87.9249   33.7803   -4.3566 C   0  0  0  0  0  0  0  0  0  0  0  0
  -87.0744   34.8125   -3.9920 C   0  0  0  0  0  0  0  0  0  0  0  0
  -87.1527   36.0657   -4.5566 C   0  0  0  0  0  0  0  0  0  0  0  0
  -88.1126   36.3392   -5.5337 C   0  0  0  0  0  0  0  0  0  0  0  0
  -88.9645   35.3191   -5.9042 C   0  0  0  0  0  0  0  0  0  0  0  0
  -88.8761   34.0685   -5.3319 C   0  0  0  0  0  0  0  0  0  0  0  0
  -92.7576   31.8397   -3.7602 C   0  0  0  0  0  0  0  0  0  0  0  0
  -92.3433   32.3618   -5.0805 C   0  0  0  0  0  0  0  0  0  0  0  0
  -92.5312   33.8367   -5.3053 C   0  0  0  0  0  0  0  0  0  0  0  0
  -93.2121   31.6399   -6.1223 C   0  0  0  0  0  0  0  0  0  0  0  0
  -93.0509   27.5560   -3.7359 C   0  0  0  0  0  0  0  0  0  0  0  0
  -92.7531   26.6786   -2.5951 C   0  0  0  0  0  0  0  0  0  0  0  0
  -93.6695   26.2013   -1.8895 O   0  0  0  0  0  0  0  0  0  0  0  0
  -91.4189   26.3342   -2.2338 N   0  0  0  0  0  0  0  0  0  0  0  0
  -90.5992   26.6795   -2.7610 H   0  0  0  0  0  0  0  0  0  0  0  0
  -91.1069   25.4632   -1.0886 C   0  0  0  0  0  0  0  0  0  0  0  0
  -90.4260   26.2284   -0.0317 C   0  0  0  0  0  0  0  0  0  0  0  0
  -91.1381   26.3693    1.0498 O   0  0  0  0  0  0  0  0  0  0  0  0
  -89.1763   26.8046   -0.0120 N   0  0  0  0  0  0  0  0  0  0  0  0
  -88.1360   26.8263   -0.9939 C   0  0  0  0  0  0  0  0  0  0  0  0
  -87.5172   28.2144   -0.8827 C   0  0  0  0  0  0  0  0  0  0  0  0
  -87.8867   28.7040    0.4829 C   0  0  0  0  0  0  0  0  0  0  0  0
  -88.6183   27.5737    1.1159 C   0  0  0  0  0  0  0  0  0  0  0  0
  -87.6433   26.7538    1.8784 C   0  0  0  0  0  0  0  0  0  0  0  0
  -88.1208   25.6511    2.6154 N   0  0  0  0  0  0  0  0  0  0  0  0
  -86.4067   26.9787    1.9121 O   0  0  0  0  0  0  0  0  0  0  0  0
  -89.0559   25.6856    3.0450 H   0  0  0  0  0  0  0  0  0  0  0  0
  -87.5334   24.8105    2.7255 H   0  0  0  0  0  0  0  0  0  0  0  0
  -90.3263   24.2687   -1.5874 C   0  0  0  0  0  0  0  0  0  0  0  0
  -91.2092   23.0454   -1.7269 C   0  0  0  0  0  0  0  0  0  0  0  0
  -92.2420   23.1485   -0.6078 C   0  0  0  0  0  0  0  0  0  0  0  0
  -92.0059   23.0391   -3.0135 C   0  0  0  0  0  0  0  0  0  0  0  0
  -92.2449   27.2084   -4.9608 C   0  0  0  0  0  0  0  0  0  0  0  0
  -93.0752   26.7755   -6.1368 C   0  0  0  0  0  0  0  0  0  0  0  0
  -94.1247   25.7732   -5.6282 C   0  0  0  0  0  0  0  0  0  0  0  0
  -93.8667   27.9101   -6.7491 C   0  0  0  0  0  0  0  0  0  0  0  0
 15 11  1  0  0  0
 11 12  2  0  0  0
 11 13  1  0  0  0
 13 10  1  0  0  0
 10 21  1  0  0  0
 21 22  1  0  0  0
 22 23  2  0  0  0
 23 24  1  0  0  0
 24 25  2  0  0  0
 25 26  1  0  0  0
 26 27  2  0  0  0
 10  6  1  0  0  0
  6  7  2  0  0  0
  6  8  1  0  0  0
  8  5  1  0  0  0
  5 28  1  0  0  0
 28 29  1  0  0  0
 29 30  1  0  0  0
 29 31  1  0  0  0
  5  1  1  0  0  0
  1  2  2  0  0  0
  1  3  1  0  0  0
  3 32  1  0  0  0
 32 54  1  0  0  0
 54 55  1  0  0  0
 55 56  1  0  0  0
 55 57  1  0  0  0
 32 33  1  0  0  0
 33 34  2  0  0  0
 33 35  1  0  0  0
 35 37  1  0  0  0
 37 50  1  0  0  0
 50 51  1  0  0  0
 51 52  1  0  0  0
 51 53  1  0  0  0
 37 38  1  0  0  0
 38 39  2  0  0  0
 38 40  1  0  0  0
 40 41  1  0  0  0
 41 42  1  0  0  0
 42 43  1  0  0  0
 43 44  1  0  0  0
 44 45  1  0  0  0
 45 46  1  0  0  0
 45 47  2  0  0  0
 15 16  2  0  0  0
 16 17  1  0  0  0
 17 18  2  0  0  0
 18 19  1  0  0  0
 19 20  2  0  0  0
 20 15  1  0  0  0
 27 22  1  0  0  0
 44 40  1  0  0  0
 13 14  1  0  0  0
  8  9  1  0  0  0
  3  4  1  0  0  0
 35 36  1  0  0  0
 46 48  1  0  0  0
 46 49  1  0  0  0
M  END
> <minimizedAffinity>
-8.39236

> <CNNscore>
0.1262690574

> <CNNaffinity>
7.0547971725

> <CNN_VS>
0.8908025622

> <CNNaffinity_variance>
0.8598165512

$$$$
[H]c1c([H])c([H])c(C(=O)N([H])[C@]([H])(C(=O)N([H])[C@]([H])(C(=O)N([H])[C@]([H])(C(=O)N([H])[C@]([H])(C(=O)N2C([H])([H])C([H])([H])C([H])([H])[C@]2([H])C(=O)N([H])[H])C([H])([H])C([H])(C([H])([H])[H])C([H])([H])[H])C([H])([H])C([H])(C([H])([H])[H])C([H])([H])[H])C([H])([H])C([H])(C([H])([H])[H])C([H])([H])[H])C([H])([H])c2c([H])c([H])c([H])c([H])c2[H])c([H])c1[H]


 57 59  0  0  0  0  0  0  0  0999 V2000
  -91.6016   29.1155   -2.9951 C   0  0  0  0  0  0  0  0  0  0  0  0
  -90.5413   28.6522   -3.4923 O   0  0  0  0  0  0  0  0  0  0  0  0
  -92.6591   28.1969   -2.7398 N   0  0  0  0  0  0  0  0  0  0  0  0
  -93.5323   28.6346   -2.3193 H   0  0  0  0  0  0  0  0  0  0  0  0
  -91.6974   30.5734   -2.7057 C   0  0  0  0  0  0  0  0  0  0  0  0
  -89.5655   31.4387   -1.6732 C   0  0  0  0  0  0  0  0  0  0  0  0
  -89.9310   31.0354   -0.5640 O   0  0  0  0  0  0  0  0  0  0  0  0
  -90.4308   31.2256   -2.7777 N   0  0  0  0  0  0  0  0  0  0  0  0
  -90.1147   31.5642   -3.7204 H   0  0  0  0  0  0  0  0  0  0  0  0
  -88.2763   32.1201   -1.8366 C   0  0  0  0  0  0  0  0  0  0  0  0
  -86.1839   32.1609   -0.4582 C   0  0  0  0  0  0  0  0  0  0  0  0
  -86.2848   33.4120   -0.4054 O   0  0  0  0  0  0  0  0  0  0  0  0
  -87.1654   31.4454   -1.1714 N   0  0  0  0  0  0  0  0  0  0  0  0
  -87.1594   30.4079   -1.2686 H   0  0  0  0  0  0  0  0  0  0  0  0
  -85.0731   31.5512    0.2148 C   0  0  0  0  0  0  0  0  0  0  0  0
  -85.2878   30.6682    1.2430 C   0  0  0  0  0  0  0  0  0  0  0  0
  -84.2616   30.0395    1.9430 C   0  0  0  0  0  0  0  0  0  0  0  0
  -82.9485   30.3130    1.5905 C   0  0  0  0  0  0  0  0  0  0  0  0
  -82.7334   31.1965    0.5617 C   0  0  0  0  0  0  0  0  0  0  0  0
  -83.7537   31.8136   -0.1251 C   0  0  0  0  0  0  0  0  0  0  0  0
  -87.9050   32.3905   -3.2694 C   0  0  0  0  0  0  0  0  0  0  0  0
  -88.1595   33.7327   -3.7402 C   0  0  0  0  0  0  0  0  0  0  0  0
  -88.6607   33.8913   -5.0230 C   0  0  0  0  0  0  0  0  0  0  0  0
  -88.9395   35.1292   -5.5570 C   0  0  0  0  0  0  0  0  0  0  0  0
  -88.7202   36.2861   -4.8055 C   0  0  0  0  0  0  0  0  0  0  0  0
  -88.2214   36.1399   -3.5275 C   0  0  0  0  0  0  0  0  0  0  0  0
  -87.9464   34.8952   -3.0037 C   0  0  0  0  0  0  0  0  0  0  0  0
  -92.7877   31.2095   -3.5414 C   0  0  0  0  0  0  0  0  0  0  0  0
  -94.0124   31.6270   -2.8251 C   0  0  0  0  0  0  0  0  0  0  0  0
  -95.0902   30.5882   -2.6818 C   0  0  0  0  0  0  0  0  0  0  0  0
  -94.6154   32.7829   -3.6383 C   0  0  0  0  0  0  0  0  0  0  0  0
  -92.5934   26.8004   -3.0120 C   0  0  0  0  0  0  0  0  0  0  0  0
  -91.7294   26.0104   -2.1235 C   0  0  0  0  0  0  0  0  0  0  0  0
  -90.7124   25.4275   -2.5607 O   0  0  0  0  0  0  0  0  0  0  0  0
  -92.0056   25.8645   -0.7336 N   0  0  0  0  0  0  0  0  0  0  0  0
  -92.8220   26.3126   -0.2845 H   0  0  0  0  0  0  0  0  0  0  0  0
  -91.1529   25.0693    0.1652 C   0  0  0  0  0  0  0  0  0  0  0  0
  -89.7369   25.4242   -0.0228 C   0  0  0  0  0  0  0  0  0  0  0  0
  -89.0254   24.4667   -0.5457 O   0  0  0  0  0  0  0  0  0  0  0  0
  -89.0643   26.5905    0.2625 N   0  0  0  0  0  0  0  0  0  0  0  0
  -89.5238   27.8311    0.8073 C   0  0  0  0  0  0  0  0  0  0  0  0
  -88.3929   28.3087    1.7102 C   0  0  0  0  0  0  0  0  0  0  0  0
  -87.1711   27.5913    1.2268 C   0  0  0  0  0  0  0  0  0  0  0  0
  -87.6222   26.8091    0.0444 C   0  0  0  0  0  0  0  0  0  0  0  0
  -87.3941   27.6279   -1.1729 C   0  0  0  0  0  0  0  0  0  0  0  0
  -88.1267   27.3222   -2.3377 N   0  0  0  0  0  0  0  0  0  0  0  0
  -86.5827   28.5863   -1.2363 O   0  0  0  0  0  0  0  0  0  0  0  0
  -88.3884   26.3470   -2.5396 H   0  0  0  0  0  0  0  0  0  0  0  0
  -88.3994   28.0746   -2.9884 H   0  0  0  0  0  0  0  0  0  0  0  0
  -91.4567   23.6042   -0.0496 C   0  0  0  0  0  0  0  0  0  0  0  0
  -91.9215   22.9386    1.2297 C   0  0  0  0  0  0  0  0  0  0  0  0
  -91.4711   21.4837    1.1284 C   0  0  0  0  0  0  0  0  0  0  0  0
  -91.2364   23.4895    2.4614 C   0  0  0  0  0  0  0  0  0  0  0  0
  -92.2834   26.5787   -4.4699 C   0  0  0  0  0  0  0  0  0  0  0  0
  -93.4331   26.8758   -5.3917 C   0  0  0  0  0  0  0  0  0  0  0  0
  -92.9081   27.7736   -6.5244 C   0  0  0  0  0  0  0  0  0  0  0  0
  -93.9742   25.6400   -6.0765 C   0  0  0  0  0  0  0  0  0  0  0  0
 15 11  1  0  0  0
 11 12  2  0  0  0
 11 13  1  0  0  0
 13 10  1  0  0  0
 10 21  1  0  0  0
 21 22  1  0  0  0
 22 23  2  0  0  0
 23 24  1  0  0  0
 24 25  2  0  0  0
 25 26  1  0  0  0
 26 27  2  0  0  0
 10  6  1  0  0  0
  6  7  2  0  0  0
  6  8  1  0  0  0
  8  5  1  0  0  0
  5 28  1  0  0  0
 28 29  1  0  0  0
 29 30  1  0  0  0
 29 31  1  0  0  0
  5  1  1  0  0  0
  1  2  2  0  0  0
  1  3  1  0  0  0
  3 32  1  0  0  0
 32 54  1  0  0  0
 54 55  1  0  0  0
 55 56  1  0  0  0
 55 57  1  0  0  0
 32 33  1  0  0  0
 33 34  2  0  0  0
 33 35  1  0  0  0
 35 37  1  0  0  0
 37 50  1  0  0  0
 50 51  1  0  0  0
 51 52  1  0  0  0
 51 53  1  0  0  0
 37 38  1  0  0  0
 38 39  2  0  0  0
 38 40  1  0  0  0
 40 41  1  0  0  0
 41 42  1  0  0  0
 42 43  1  0  0  0
 43 44  1  0  0  0
 44 45  1  0  0  0
 45 46  1  0  0  0
 45 47  2  0  0  0
 15 16  2  0  0  0
 16 17  1  0  0  0
 17 18  2  0  0  0
 18 19  1  0  0  0
 19 20  2  0  0  0
 20 15  1  0  0  0
 27 22  1  0  0  0
 44 40  1  0  0  0
 13 14  1  0  0  0
  8  9  1  0  0  0
  3  4  1  0  0  0
 35 36  1  0  0  0
 46 48  1  0  0  0
 46 49  1  0  0  0
M  END
> <minimizedAffinity>
-8.19275

> <CNNscore>
0.1223050132

> <CNNaffinity>
6.7633500099

> <CNN_VS>
0.8271915913

> <CNNaffinity_variance>
1.2927055359

$$$$
[H]c1c([H])c([H])c(C(=O)N([H])[C@]([H])(C(=O)N([H])[C@]([H])(C(=O)N([H])[C@]([H])(C(=O)N([H])[C@]([H])(C(=O)N2C([H])([H])C([H])([H])C([H])([H])[C@]2([H])C(=O)N([H])[H])C([H])([H])C([H])(C([H])([H])[H])C([H])([H])[H])C([H])([H])C([H])(C([H])([H])[H])C([H])([H])[H])C([H])([H])C([H])(C([H])([H])[H])C([H])([H])[H])C([H])([H])c2c([H])c([H])c([H])c([H])c2[H])c([H])c1[H]


 57 59  0  0  0  0  0  0  0  0999 V2000
  -89.7524   31.4012   -3.4748 C   0  0  0  0  0  0  0  0  0  0  0  0
  -89.6011   30.5082   -4.3499 O   0  0  0  0  0  0  0  0  0  0  0  0
  -90.9339   32.1925   -3.5463 N   0  0  0  0  0  0  0  0  0  0  0  0
  -91.0171   32.9316   -2.7862 H   0  0  0  0  0  0  0  0  0  0  0  0
  -88.7078   31.5845   -2.4289 C   0  0  0  0  0  0  0  0  0  0  0  0
  -88.6748   29.7682   -0.6797 C   0  0  0  0  0  0  0  0  0  0  0  0
  -89.5136   30.3846   -0.0141 O   0  0  0  0  0  0  0  0  0  0  0  0
  -88.2423   30.3429   -1.9032 N   0  0  0  0  0  0  0  0  0  0  0  0
  -87.5336   29.8137   -2.4697 H   0  0  0  0  0  0  0  0  0  0  0  0
  -88.1429   28.4831   -0.2122 C   0  0  0  0  0  0  0  0  0  0  0  0
  -89.8304   26.6520   -0.4936 C   0  0  0  0  0  0  0  0  0  0  0  0
  -90.4024   27.0673    0.5450 O   0  0  0  0  0  0  0  0  0  0  0  0
  -88.6753   27.3292   -0.9310 N   0  0  0  0  0  0  0  0  0  0  0  0
  -88.1371   27.0529   -1.7794 H   0  0  0  0  0  0  0  0  0  0  0  0
  -90.3982   25.5153   -1.1599 C   0  0  0  0  0  0  0  0  0  0  0  0
  -91.4101   25.6827   -2.0715 C   0  0  0  0  0  0  0  0  0  0  0  0
  -92.0107   24.6290   -2.7552 C   0  0  0  0  0  0  0  0  0  0  0  0
  -91.5701   23.3371   -2.5096 C   0  0  0  0  0  0  0  0  0  0  0  0
  -90.5575   23.1694   -1.5976 C   0  0  0  0  0  0  0  0  0  0  0  0
  -89.9694   24.2166   -0.9261 C   0  0  0  0  0  0  0  0  0  0  0  0
  -86.6400   28.4105   -0.2030 C   0  0  0  0  0  0  0  0  0  0  0  0
  -85.9778   29.2525    0.7668 C   0  0  0  0  0  0  0  0  0  0  0  0
  -85.4003   30.4317    0.3223 C   0  0  0  0  0  0  0  0  0  0  0  0
  -84.7526   31.3005    1.1715 C   0  0  0  0  0  0  0  0  0  0  0  0
  -84.6563   31.0122    2.5348 C   0  0  0  0  0  0  0  0  0  0  0  0
  -85.2276   29.8410    2.9882 C   0  0  0  0  0  0  0  0  0  0  0  0
  -85.8736   28.9793    2.1283 C   0  0  0  0  0  0  0  0  0  0  0  0
  -87.6191   32.5128   -2.9237 C   0  0  0  0  0  0  0  0  0  0  0  0
  -87.4831   33.8072   -2.2213 C   0  0  0  0  0  0  0  0  0  0  0  0
  -87.3558   35.0287   -3.0890 C   0  0  0  0  0  0  0  0  0  0  0  0
  -86.1925   33.7152   -1.3924 C   0  0  0  0  0  0  0  0  0  0  0  0
  -91.9441   32.0398   -4.5386 C   0  0  0  0  0  0  0  0  0  0  0  0
  -92.1319   33.1790   -5.4480 C   0  0  0  0  0  0  0  0  0  0  0  0
  -92.6396   33.0254   -6.5812 O   0  0  0  0  0  0  0  0  0  0  0  0
  -91.7441   34.5027   -5.0922 N   0  0  0  0  0  0  0  0  0  0  0  0
  -91.3194   34.7245   -4.1760 H   0  0  0  0  0  0  0  0  0  0  0  0
  -91.9191   35.6508   -5.9970 C   0  0  0  0  0  0  0  0  0  0  0  0
  -90.7222   36.5072   -5.9777 C   0  0  0  0  0  0  0  0  0  0  0  0
  -90.3405   36.8411   -4.7781 O   0  0  0  0  0  0  0  0  0  0  0  0
  -89.9597   36.9976   -7.0132 N   0  0  0  0  0  0  0  0  0  0  0  0
  -90.0687   36.8166   -8.4282 C   0  0  0  0  0  0  0  0  0  0  0  0
  -89.6850   38.1634   -9.0292 C   0  0  0  0  0  0  0  0  0  0  0  0
  -88.8907   38.8583   -7.9674 C   0  0  0  0  0  0  0  0  0  0  0  0
  -88.7853   37.8756   -6.8553 C   0  0  0  0  0  0  0  0  0  0  0  0
  -87.5277   37.1058   -7.0289 C   0  0  0  0  0  0  0  0  0  0  0  0
  -86.4647   37.7023   -7.7368 N   0  0  0  0  0  0  0  0  0  0  0  0
  -87.3443   35.9448   -6.5825 O   0  0  0  0  0  0  0  0  0  0  0  0
  -86.6626   38.3495   -8.5129 H   0  0  0  0  0  0  0  0  0  0  0  0
  -85.4890   37.4897   -7.4787 H   0  0  0  0  0  0  0  0  0  0  0  0
  -93.1979   36.3674   -5.6283 C   0  0  0  0  0  0  0  0  0  0  0  0
  -93.2579   37.7510   -6.2428 C   0  0  0  0  0  0  0  0  0  0  0  0
  -94.3882   37.7020   -7.2673 C   0  0  0  0  0  0  0  0  0  0  0  0
  -93.6591   38.8189   -5.2484 C   0  0  0  0  0  0  0  0  0  0  0  0
  -93.2309   31.5952   -3.8927 C   0  0  0  0  0  0  0  0  0  0  0  0
  -93.5296   30.1324   -4.0677 C   0  0  0  0  0  0  0  0  0  0  0  0
  -92.8379   29.6620   -5.3581 C   0  0  0  0  0  0  0  0  0  0  0  0
  -92.9478   29.2758   -2.9647 C   0  0  0  0  0  0  0  0  0  0  0  0
 15 11  1  0  0  0
 11 12  2  0  0  0
 11 13  1  0  0  0
 13 10  1  0  0  0
 10 21  1  0  0  0
 21 22  1  0  0  0
 22 23  2  0  0  0
 23 24  1  0  0  0
 24 25  2  0  0  0
 25 26  1  0  0  0
 26 27  2  0  0  0
 10  6  1  0  0  0
  6  7  2  0  0  0
  6  8  1  0  0  0
  8  5  1  0  0  0
  5 28  1  0  0  0
 28 29  1  0  0  0
 29 30  1  0  0  0
 29 31  1  0  0  0
  5  1  1  0  0  0
  1  2  2  0  0  0
  1  3  1  0  0  0
  3 32  1  0  0  0
 32 54  1  0  0  0
 54 55  1  0  0  0
 55 56  1  0  0  0
 55 57  1  0  0  0
 32 33  1  0  0  0
 33 34  2  0  0  0
 33 35  1  0  0  0
 35 37  1  0  0  0
 37 50  1  0  0  0
 50 51  1  0  0  0
 51 52  1  0  0  0
 51 53  1  0  0  0
 37 38  1  0  0  0
 38 39  2  0  0  0
 38 40  1  0  0  0
 40 41  1  0  0  0
 41 42  1  0  0  0
 42 43  1  0  0  0
 43 44  1  0  0  0
 44 45  1  0  0  0
 45 46  1  0  0  0
 45 47  2  0  0  0
 15 16  2  0  0  0
 16 17  1  0  0  0
 17 18  2  0  0  0
 18 19  1  0  0  0
 19 20  2  0  0  0
 20 15  1  0  0  0
 27 22  1  0  0  0
 44 40  1  0  0  0
 13 14  1  0  0  0
  8  9  1  0  0  0
  3  4  1  0  0  0
 35 36  1  0  0  0
 46 48  1  0  0  0
 46 49  1  0  0  0
M  END
> <minimizedAffinity>
-7.45036

> <CNNscore>
0.1166098788

> <CNNaffinity>
6.8383064270

> <CNN_VS>
0.7974140644

> <CNNaffinity_variance>
0.5671895742

$$$$
[H]c1c([H])c([H])c(C(=O)N([H])[C@]([H])(C(=O)N([H])[C@]([H])(C(=O)N([H])[C@]([H])(C(=O)N([H])[C@]([H])(C(=O)N2C([H])([H])C([H])([H])C([H])([H])[C@]2([H])C(=O)N([H])[H])C([H])([H])C([H])(C([H])([H])[H])C([H])([H])[H])C([H])([H])C([H])(C([H])([H])[H])C([H])([H])[H])C([H])([H])C([H])(C([H])([H])[H])C([H])([H])[H])C([H])([H])c2c([H])c([H])c([H])c([H])c2[H])c([H])c1[H]


 57 59  0  0  0  0  0  0  0  0999 V2000
  -91.6199   28.0099   -2.4006 C   0  0  0  0  0  0  0  0  0  0  0  0
  -90.8991   29.0408   -2.3393 O   0  0  0  0  0  0  0  0  0  0  0  0
  -92.8364   28.1061   -3.1342 N   0  0  0  0  0  0  0  0  0  0  0  0
  -93.4096   27.2107   -3.1583 H   0  0  0  0  0  0  0  0  0  0  0  0
  -91.1752   26.7648   -1.7147 C   0  0  0  0  0  0  0  0  0  0  0  0
  -89.0881   27.0869   -0.3362 C   0  0  0  0  0  0  0  0  0  0  0  0
  -88.3892   26.8845   -1.3348 O   0  0  0  0  0  0  0  0  0  0  0  0
  -90.4982   27.0330   -0.4881 N   0  0  0  0  0  0  0  0  0  0  0  0
  -91.0898   27.2114    0.3612 H   0  0  0  0  0  0  0  0  0  0  0  0
  -88.4730   27.3704    0.9655 C   0  0  0  0  0  0  0  0  0  0  0  0
  -86.0721   27.8807    1.4704 C   0  0  0  0  0  0  0  0  0  0  0  0
  -86.0007   26.7794    2.0707 O   0  0  0  0  0  0  0  0  0  0  0  0
  -87.3027   28.2398    0.8866 N   0  0  0  0  0  0  0  0  0  0  0  0
  -87.4527   29.1335    0.3722 H   0  0  0  0  0  0  0  0  0  0  0  0
  -84.8909   28.6936    1.4231 C   0  0  0  0  0  0  0  0  0  0  0  0
  -83.7792   28.3403    2.1457 C   0  0  0  0  0  0  0  0  0  0  0  0
  -82.5991   29.0791    2.1509 C   0  0  0  0  0  0  0  0  0  0  0  0
  -82.5327   30.2355    1.3883 C   0  0  0  0  0  0  0  0  0  0  0  0
  -83.6450   30.5893    0.6651 C   0  0  0  0  0  0  0  0  0  0  0  0
  -84.8075   29.8532    0.6656 C   0  0  0  0  0  0  0  0  0  0  0  0
  -89.4307   27.9204    1.9874 C   0  0  0  0  0  0  0  0  0  0  0  0
  -89.5283   27.1737    3.2206 C   0  0  0  0  0  0  0  0  0  0  0  0
  -89.1577   25.8380    3.2069 C   0  0  0  0  0  0  0  0  0  0  0  0
  -89.2112   25.0472    4.3326 C   0  0  0  0  0  0  0  0  0  0  0  0
  -89.6503   25.5795    5.5471 C   0  0  0  0  0  0  0  0  0  0  0  0
  -90.0217   26.9080    5.5721 C   0  0  0  0  0  0  0  0  0  0  0  0
  -89.9637   27.6897    4.4386 C   0  0  0  0  0  0  0  0  0  0  0  0
  -92.3207   25.7811   -1.6060 C   0  0  0  0  0  0  0  0  0  0  0  0
  -92.2627   24.5969   -2.4901 C   0  0  0  0  0  0  0  0  0  0  0  0
  -93.4735   23.7052   -2.4938 C   0  0  0  0  0  0  0  0  0  0  0  0
  -91.0851   23.7442   -1.9929 C   0  0  0  0  0  0  0  0  0  0  0  0
  -93.2854   29.2858   -3.7942 C   0  0  0  0  0  0  0  0  0  0  0  0
  -92.2715   30.0182   -4.5659 C   0  0  0  0  0  0  0  0  0  0  0  0
  -91.8134   29.5561   -5.6346 O   0  0  0  0  0  0  0  0  0  0  0  0
  -91.7588   31.2766   -4.1385 N   0  0  0  0  0  0  0  0  0  0  0  0
  -92.0808   31.7360   -3.2700 H   0  0  0  0  0  0  0  0  0  0  0  0
  -90.7373   32.0162   -4.8980 C   0  0  0  0  0  0  0  0  0  0  0  0
  -89.4032   31.7919   -4.3181 C   0  0  0  0  0  0  0  0  0  0  0  0
  -88.5687   31.2198   -5.1382 O   0  0  0  0  0  0  0  0  0  0  0  0
  -88.9130   32.0900   -3.0671 N   0  0  0  0  0  0  0  0  0  0  0  0
  -89.5281   32.7289   -1.9445 C   0  0  0  0  0  0  0  0  0  0  0  0
  -88.9812   31.9968   -0.7250 C   0  0  0  0  0  0  0  0  0  0  0  0
  -87.7146   31.3473   -1.1888 C   0  0  0  0  0  0  0  0  0  0  0  0
  -87.5473   31.7862   -2.6005 C   0  0  0  0  0  0  0  0  0  0  0  0
  -86.7046   33.0085   -2.6136 C   0  0  0  0  0  0  0  0  0  0  0  0
  -86.5937   33.7377   -3.8148 N   0  0  0  0  0  0  0  0  0  0  0  0
  -86.0758   33.4423   -1.6150 O   0  0  0  0  0  0  0  0  0  0  0  0
  -86.6219   33.2463   -4.7193 H   0  0  0  0  0  0  0  0  0  0  0  0
  -86.4830   34.7628   -3.7881 H   0  0  0  0  0  0  0  0  0  0  0  0
  -91.1442   33.4703   -4.9679 C   0  0  0  0  0  0  0  0  0  0  0  0
  -90.0144   34.3408   -5.4792 C   0  0  0  0  0  0  0  0  0  0  0  0
  -90.4556   34.8274   -6.8569 C   0  0  0  0  0  0  0  0  0  0  0  0
  -89.8164   35.5926   -4.6522 C   0  0  0  0  0  0  0  0  0  0  0  0
  -94.0207   30.1680   -2.8186 C   0  0  0  0  0  0  0  0  0  0  0  0
  -95.4887   30.3106   -3.1092 C   0  0  0  0  0  0  0  0  0  0  0  0
  -95.8582   31.7946   -2.9484 C   0  0  0  0  0  0  0  0  0  0  0  0
  -95.8434   29.9607   -4.5377 C   0  0  0  0  0  0  0  0  0  0  0  0
 15 11  1  0  0  0
 11 12  2  0  0  0
 11 13  1  0  0  0
 13 10  1  0  0  0
 10 21  1  0  0  0
 21 22  1  0  0  0
 22 23  2  0  0  0
 23 24  1  0  0  0
 24 25  2  0  0  0
 25 26  1  0  0  0
 26 27  2  0  0  0
 10  6  1  0  0  0
  6  7  2  0  0  0
  6  8  1  0  0  0
  8  5  1  0  0  0
  5 28  1  0  0  0
 28 29  1  0  0  0
 29 30  1  0  0  0
 29 31  1  0  0  0
  5  1  1  0  0  0
  1  2  2  0  0  0
  1  3  1  0  0  0
  3 32  1  0  0  0
 32 54  1  0  0  0
 54 55  1  0  0  0
 55 56  1  0  0  0
 55 57  1  0  0  0
 32 33  1  0  0  0
 33 34  2  0  0  0
 33 35  1  0  0  0
 35 37  1  0  0  0
 37 50  1  0  0  0
 50 51  1  0  0  0
 51 52  1  0  0  0
 51 53  1  0  0  0
 37 38  1  0  0  0
 38 39  2  0  0  0
 38 40  1  0  0  0
 40 41  1  0  0  0
 41 42  1  0  0  0
 42 43  1  0  0  0
 43 44  1  0  0  0
 44 45  1  0  0  0
 45 46  1  0  0  0
 45 47  2  0  0  0
 15 16  2  0  0  0
 16 17  1  0  0  0
 17 18  2  0  0  0
 18 19  1  0  0  0
 19 20  2  0  0  0
 20 15  1  0  0  0
 27 22  1  0  0  0
 44 40  1  0  0  0
 13 14  1  0  0  0
  8  9  1  0  0  0
  3  4  1  0  0  0
 35 36  1  0  0  0
 46 48  1  0  0  0
 46 49  1  0  0  0
M  END
> <minimizedAffinity>
-8.60642

> <CNNscore>
0.1107101291

> <CNNaffinity>
7.2817506790

> <CNN_VS>
0.8061635494

> <CNNaffinity_variance>
0.5993224978

$$$$
[H]c1c([H])c([H])c(C(=O)N([H])[C@]([H])(C(=O)N([H])[C@]([H])(C(=O)N([H])[C@]([H])(C(=O)N([H])[C@]([H])(C(=O)N2C([H])([H])C([H])([H])C([H])([H])[C@]2([H])C(=O)N([H])[H])C([H])([H])C([H])(C([H])([H])[H])C([H])([H])[H])C([H])([H])C([H])(C([H])([H])[H])C([H])([H])[H])C([H])([H])C([H])(C([H])([H])[H])C([H])([H])[H])C([H])([H])c2c([H])c([H])c([H])c([H])c2[H])c([H])c1[H]


 57 59  0  0  0  0  0  0  0  0999 V2000
  -89.5306   29.4426   -2.1945 C   0  0  0  0  0  0  0  0  0  0  0  0
  -88.9862   28.5431   -2.8877 O   0  0  0  0  0  0  0  0  0  0  0  0
  -89.8430   29.1258   -0.8420 N   0  0  0  0  0  0  0  0  0  0  0  0
  -90.3000   29.9167   -0.2975 H   0  0  0  0  0  0  0  0  0  0  0  0
  -89.8180   30.7677   -2.8111 C   0  0  0  0  0  0  0  0  0  0  0  0
  -88.2101   32.3481   -1.6811 C   0  0  0  0  0  0  0  0  0  0  0  0
  -88.8320   32.2326   -0.6197 O   0  0  0  0  0  0  0  0  0  0  0  0
  -88.6785   31.6258   -2.8094 N   0  0  0  0  0  0  0  0  0  0  0  0
  -88.1444   31.7213   -3.7088 H   0  0  0  0  0  0  0  0  0  0  0  0
  -87.0260   33.2104   -1.7671 C   0  0  0  0  0  0  0  0  0  0  0  0
  -87.4291   34.5668   -3.8353 C   0  0  0  0  0  0  0  0  0  0  0  0
  -87.3504   33.5062   -4.5040 O   0  0  0  0  0  0  0  0  0  0  0  0
  -87.2726   34.4835   -2.4379 N   0  0  0  0  0  0  0  0  0  0  0  0
  -87.3207   35.3111   -1.8066 H   0  0  0  0  0  0  0  0  0  0  0  0
  -87.6740   35.7885   -4.5466 C   0  0  0  0  0  0  0  0  0  0  0  0
  -87.7329   35.7903   -5.9176 C   0  0  0  0  0  0  0  0  0  0  0  0
  -87.9646   36.9349   -6.6754 C   0  0  0  0  0  0  0  0  0  0  0  0
  -88.1473   38.1433   -6.0199 C   0  0  0  0  0  0  0  0  0  0  0  0
  -88.0885   38.1418   -4.6481 C   0  0  0  0  0  0  0  0  0  0  0  0
  -87.8590   37.0056   -3.9066 C   0  0  0  0  0  0  0  0  0  0  0  0
  -86.3606   33.4691   -0.4427 C   0  0  0  0  0  0  0  0  0  0  0  0
  -85.1898   32.6698   -0.1627 C   0  0  0  0  0  0  0  0  0  0  0  0
  -85.3526   31.5095    0.5782 C   0  0  0  0  0  0  0  0  0  0  0  0
  -84.2983   30.6811    0.8906 C   0  0  0  0  0  0  0  0  0  0  0  0
  -83.0063   30.9929    0.4610 C   0  0  0  0  0  0  0  0  0  0  0  0
  -82.8328   32.1456   -0.2771 C   0  0  0  0  0  0  0  0  0  0  0  0
  -83.8961   32.9668   -0.5837 C   0  0  0  0  0  0  0  0  0  0  0  0
  -90.4788   30.5921   -4.1617 C   0  0  0  0  0  0  0  0  0  0  0  0
  -91.7067   31.3796   -4.4055 C   0  0  0  0  0  0  0  0  0  0  0  0
  -91.5281   32.8639   -4.5670 C   0  0  0  0  0  0  0  0  0  0  0  0
  -92.6042   31.1719   -3.1756 C   0  0  0  0  0  0  0  0  0  0  0  0
  -89.5827   27.8656   -0.2314 C   0  0  0  0  0  0  0  0  0  0  0  0
  -90.7635   27.0763    0.1465 C   0  0  0  0  0  0  0  0  0  0  0  0
  -91.3665   27.2887    1.2219 O   0  0  0  0  0  0  0  0  0  0  0  0
  -91.2739   26.0354   -0.6812 N   0  0  0  0  0  0  0  0  0  0  0  0
  -90.8421   25.7916   -1.5885 H   0  0  0  0  0  0  0  0  0  0  0  0
  -92.4507   25.2321   -0.3104 C   0  0  0  0  0  0  0  0  0  0  0  0
  -92.0676   23.8267   -0.0997 C   0  0  0  0  0  0  0  0  0  0  0  0
  -92.5910   23.0088   -0.9677 O   0  0  0  0  0  0  0  0  0  0  0  0
  -91.2557   23.2571    0.8546 N   0  0  0  0  0  0  0  0  0  0  0  0
  -90.5104   23.8434    1.9258 C   0  0  0  0  0  0  0  0  0  0  0  0
  -90.6184   22.8469    3.0736 C   0  0  0  0  0  0  0  0  0  0  0  0
  -90.9686   21.5407    2.4316 C   0  0  0  0  0  0  0  0  0  0  0  0
  -90.9705   21.8147    0.9693 C   0  0  0  0  0  0  0  0  0  0  0  0
  -89.6217   21.5025    0.4331 C   0  0  0  0  0  0  0  0  0  0  0  0
  -88.7510   20.7167    1.2150 N   0  0  0  0  0  0  0  0  0  0  0  0
  -89.1983   21.8959   -0.6835 O   0  0  0  0  0  0  0  0  0  0  0  0
  -88.7816   20.7821    2.2421 H   0  0  0  0  0  0  0  0  0  0  0  0
  -88.0826   20.0773    0.7586 H   0  0  0  0  0  0  0  0  0  0  0  0
  -93.5219   25.4302   -1.3583 C   0  0  0  0  0  0  0  0  0  0  0  0
  -92.9855   26.1622   -2.5715 C   0  0  0  0  0  0  0  0  0  0  0  0
  -93.1818   25.2126   -3.7502 C   0  0  0  0  0  0  0  0  0  0  0  0
  -93.7856   27.4007   -2.9121 C   0  0  0  0  0  0  0  0  0  0  0  0
  -88.6135   28.0415    0.9090 C   0  0  0  0  0  0  0  0  0  0  0  0
  -87.9092   26.7767    1.3137 C   0  0  0  0  0  0  0  0  0  0  0  0
  -86.4019   27.0755    1.3723 C   0  0  0  0  0  0  0  0  0  0  0  0
  -88.2816   26.3140    2.7052 C   0  0  0  0  0  0  0  0  0  0  0  0
 15 11  1  0  0  0
 11 12  2  0  0  0
 11 13  1  0  0  0
 13 10  1  0  0  0
 10 21  1  0  0  0
 21 22  1  0  0  0
 22 23  2  0  0  0
 23 24  1  0  0  0
 24 25  2  0  0  0
 25 26  1  0  0  0
 26 27  2  0  0  0
 10  6  1  0  0  0
  6  7  2  0  0  0
  6  8  1  0  0  0
  8  5  1  0  0  0
  5 28  1  0  0  0
 28 29  1  0  0  0
 29 30  1  0  0  0
 29 31  1  0  0  0
  5  1  1  0  0  0
  1  2  2  0  0  0
  1  3  1  0  0  0
  3 32  1  0  0  0
 32 54  1  0  0  0
 54 55  1  0  0  0
 55 56  1  0  0  0
 55 57  1  0  0  0
 32 33  1  0  0  0
 33 34  2  0  0  0
 33 35  1  0  0  0
 35 37  1  0  0  0
 37 50  1  0  0  0
 50 51  1  0  0  0
 51 52  1  0  0  0
 51 53  1  0  0  0
 37 38  1  0  0  0
 38 39  2  0  0  0
 38 40  1  0  0  0
 40 41  1  0  0  0
 41 42  1  0  0  0
 42 43  1  0  0  0
 43 44  1  0  0  0
 44 45  1  0  0  0
 45 46  1  0  0  0
 45 47  2  0  0  0
 15 16  2  0  0  0
 16 17  1  0  0  0
 17 18  2  0  0  0
 18 19  1  0  0  0
 19 20  2  0  0  0
 20 15  1  0  0  0
 27 22  1  0  0  0
 44 40  1  0  0  0
 13 14  1  0  0  0
  8  9  1  0  0  0
  3  4  1  0  0  0
 35 36  1  0  0  0
 46 48  1  0  0  0
 46 49  1  0  0  0
M  END
> <minimizedAffinity>
-8.47360

> <CNNscore>
0.1000727266

> <CNNaffinity>
6.6653342247

> <CNN_VS>
0.6670181751

> <CNNaffinity_variance>
1.0951538086

$$$$
[H]c1c([H])c([H])c(C(=O)N([H])[C@]([H])(C(=O)N([H])[C@]([H])(C(=O)N([H])[C@]([H])(C(=O)N([H])[C@]([H])(C(=O)N2C([H])([H])C([H])([H])C([H])([H])[C@]2([H])C(=O)N([H])[H])C([H])([H])C([H])(C([H])([H])[H])C([H])([H])[H])C([H])([H])C([H])(C([H])([H])[H])C([H])([H])[H])C([H])([H])C([H])(C([H])([H])[H])C([H])([H])[H])C([H])([H])c2c([H])c([H])c([H])c([H])c2[H])c([H])c1[H]


 57 59  0  0  0  0  0  0  0  0999 V2000
  -86.9954   29.6062   -0.9809 C   0  0  0  0  0  0  0  0  0  0  0  0
  -86.6908   28.5891   -1.6582 O   0  0  0  0  0  0  0  0  0  0  0  0
  -86.8985   29.5007    0.4357 N   0  0  0  0  0  0  0  0  0  0  0  0
  -87.1648   30.3846    0.9636 H   0  0  0  0  0  0  0  0  0  0  0  0
  -87.4358   30.8454   -1.6801 C   0  0  0  0  0  0  0  0  0  0  0  0
  -89.8399   30.1521   -1.9954 C   0  0  0  0  0  0  0  0  0  0  0  0
  -89.9303   29.8930   -0.7907 O   0  0  0  0  0  0  0  0  0  0  0  0
  -88.5964   30.6331   -2.4817 N   0  0  0  0  0  0  0  0  0  0  0  0
  -88.5244   30.8582   -3.5052 H   0  0  0  0  0  0  0  0  0  0  0  0
  -90.9861   29.9627   -2.8918 C   0  0  0  0  0  0  0  0  0  0  0  0
  -92.2882   27.9562   -3.6387 C   0  0  0  0  0  0  0  0  0  0  0  0
  -92.0720   28.3017   -4.8271 O   0  0  0  0  0  0  0  0  0  0  0  0
  -91.7628   28.7595   -2.6078 N   0  0  0  0  0  0  0  0  0  0  0  0
  -91.8946   28.5498   -1.5957 H   0  0  0  0  0  0  0  0  0  0  0  0
  -93.0563   26.7645   -3.4187 C   0  0  0  0  0  0  0  0  0  0  0  0
  -94.0252   26.7360   -2.4474 C   0  0  0  0  0  0  0  0  0  0  0  0
  -94.8082   25.6174   -2.1754 C   0  0  0  0  0  0  0  0  0  0  0  0
  -94.6066   24.4650   -2.9202 C   0  0  0  0  0  0  0  0  0  0  0  0
  -93.6372   24.4932   -3.8922 C   0  0  0  0  0  0  0  0  0  0  0  0
  -92.8677   25.6033   -4.1545 C   0  0  0  0  0  0  0  0  0  0  0  0
  -91.9127   31.1463   -2.9579 C   0  0  0  0  0  0  0  0  0  0  0  0
  -91.7736   31.9868   -4.1250 C   0  0  0  0  0  0  0  0  0  0  0  0
  -92.7899   31.9695   -5.0676 C   0  0  0  0  0  0  0  0  0  0  0  0
  -92.7495   32.7392   -6.2084 C   0  0  0  0  0  0  0  0  0  0  0  0
  -91.6596   33.5774   -6.4543 C   0  0  0  0  0  0  0  0  0  0  0  0
  -90.6423   33.6025   -5.5226 C   0  0  0  0  0  0  0  0  0  0  0  0
  -90.6941   32.8275   -4.3842 C   0  0  0  0  0  0  0  0  0  0  0  0
  -87.5408   31.9970   -0.7030 C   0  0  0  0  0  0  0  0  0  0  0  0
  -86.6870   33.1741   -0.9727 C   0  0  0  0  0  0  0  0  0  0  0  0
  -86.4556   33.5150   -2.4189 C   0  0  0  0  0  0  0  0  0  0  0  0
  -85.3112   32.8579   -0.3657 C   0  0  0  0  0  0  0  0  0  0  0  0
  -86.4850   28.3263    1.1274 C   0  0  0  0  0  0  0  0  0  0  0  0
  -87.5611   27.4436    1.5994 C   0  0  0  0  0  0  0  0  0  0  0  0
  -87.3056   26.3750    2.1978 O   0  0  0  0  0  0  0  0  0  0  0  0
  -88.9368   27.7532    1.3971 N   0  0  0  0  0  0  0  0  0  0  0  0
  -89.2419   28.6157    0.9153 H   0  0  0  0  0  0  0  0  0  0  0  0
  -90.0238   26.8736    1.8576 C   0  0  0  0  0  0  0  0  0  0  0  0
  -90.6824   26.2273    0.7109 C   0  0  0  0  0  0  0  0  0  0  0  0
  -91.1333   27.0706   -0.1734 O   0  0  0  0  0  0  0  0  0  0  0  0
  -90.8886   24.8947    0.4356 N   0  0  0  0  0  0  0  0  0  0  0  0
  -90.5130   23.7173    1.1563 C   0  0  0  0  0  0  0  0  0  0  0  0
  -91.6790   22.7534    0.9730 C   0  0  0  0  0  0  0  0  0  0  0  0
  -92.3993   23.2320   -0.2490 C   0  0  0  0  0  0  0  0  0  0  0  0
  -91.5927   24.3765   -0.7521 C   0  0  0  0  0  0  0  0  0  0  0  0
  -90.6244   23.8623   -1.7531 C   0  0  0  0  0  0  0  0  0  0  0  0
  -89.4530   24.6060   -2.0015 N   0  0  0  0  0  0  0  0  0  0  0  0
  -90.7798   22.7965   -2.4018 O   0  0  0  0  0  0  0  0  0  0  0  0
  -89.4726   25.6335   -1.9365 H   0  0  0  0  0  0  0  0  0  0  0  0
  -88.5768   24.1216   -2.2495 H   0  0  0  0  0  0  0  0  0  0  0  0
  -90.9573   27.6761    2.7348 C   0  0  0  0  0  0  0  0  0  0  0  0
  -90.8527   27.2587    4.1875 C   0  0  0  0  0  0  0  0  0  0  0  0
  -90.3013   25.8355    4.1722 C   0  0  0  0  0  0  0  0  0  0  0  0
  -89.8420   28.0759    4.9625 C   0  0  0  0  0  0  0  0  0  0  0  0
  -85.5142   28.6928    2.2201 C   0  0  0  0  0  0  0  0  0  0  0  0
  -84.5406   29.7720    1.8366 C   0  0  0  0  0  0  0  0  0  0  0  0
  -84.7329   30.9468    2.8101 C   0  0  0  0  0  0  0  0  0  0  0  0
  -83.0972   29.3484    1.9982 C   0  0  0  0  0  0  0  0  0  0  0  0
 15 11  1  0  0  0
 11 12  2  0  0  0
 11 13  1  0  0  0
 13 10  1  0  0  0
 10 21  1  0  0  0
 21 22  1  0  0  0
 22 23  2  0  0  0
 23 24  1  0  0  0
 24 25  2  0  0  0
 25 26  1  0  0  0
 26 27  2  0  0  0
 10  6  1  0  0  0
  6  7  2  0  0  0
  6  8  1  0  0  0
  8  5  1  0  0  0
  5 28  1  0  0  0
 28 29  1  0  0  0
 29 30  1  0  0  0
 29 31  1  0  0  0
  5  1  1  0  0  0
  1  2  2  0  0  0
  1  3  1  0  0  0
  3 32  1  0  0  0
 32 54  1  0  0  0
 54 55  1  0  0  0
 55 56  1  0  0  0
 55 57  1  0  0  0
 32 33  1  0  0  0
 33 34  2  0  0  0
 33 35  1  0  0  0
 35 37  1  0  0  0
 37 50  1  0  0  0
 50 51  1  0  0  0
 51 52  1  0  0  0
 51 53  1  0  0  0
 37 38  1  0  0  0
 38 39  2  0  0  0
 38 40  1  0  0  0
 40 41  1  0  0  0
 41 42  1  0  0  0
 42 43  1  0  0  0
 43 44  1  0  0  0
 44 45  1  0  0  0
 45 46  1  0  0  0
 45 47  2  0  0  0
 15 16  2  0  0  0
 16 17  1  0  0  0
 17 18  2  0  0  0
 18 19  1  0  0  0
 19 20  2  0  0  0
 20 15  1  0  0  0
 27 22  1  0  0  0
 44 40  1  0  0  0
 13 14  1  0  0  0
  8  9  1  0  0  0
  3  4  1  0  0  0
 35 36  1  0  0  0
 46 48  1  0  0  0
 46 49  1  0  0  0
M  END
> <minimizedAffinity>
-8.29343

> <CNNscore>
0.0980737060

> <CNNaffinity>
6.9228987694

> <CNN_VS>
0.6789543629

> <CNNaffinity_variance>
1.2556951046

$$$$
[H]c1c([H])c([H])c(C(=O)N([H])[C@]([H])(C(=O)N([H])[C@]([H])(C(=O)N([H])[C@]([H])(C(=O)N([H])[C@]([H])(C(=O)N2C([H])([H])C([H])([H])C([H])([H])[C@]2([H])C(=O)N([H])[H])C([H])([H])C([H])(C([H])([H])[H])C([H])([H])[H])C([H])([H])C([H])(C([H])([H])[H])C([H])([H])[H])C([H])([H])C([H])(C([H])([H])[H])C([H])([H])[H])C([H])([H])c2c([H])c([H])c([H])c([H])c2[H])c([H])c1[H]


 57 59  0  0  0  0  0  0  0  0999 V2000
  -89.9537   29.4543   -2.2132 C   0  0  0  0  0  0  0  0  0  0  0  0
  -89.9367   28.4737   -3.0033 O   0  0  0  0  0  0  0  0  0  0  0  0
  -89.7431   29.1834   -0.8313 N   0  0  0  0  0  0  0  0  0  0  0  0
  -89.7653   30.0423   -0.2046 H   0  0  0  0  0  0  0  0  0  0  0  0
  -90.1906   30.8228   -2.7511 C   0  0  0  0  0  0  0  0  0  0  0  0
  -88.7332   32.4619   -1.5064 C   0  0  0  0  0  0  0  0  0  0  0  0
  -89.5169   32.4440   -0.5515 O   0  0  0  0  0  0  0  0  0  0  0  0
  -89.0403   31.6583   -2.6353 N   0  0  0  0  0  0  0  0  0  0  0  0
  -88.3692   31.6711   -3.4431 H   0  0  0  0  0  0  0  0  0  0  0  0
  -87.5249   33.2937   -1.4702 C   0  0  0  0  0  0  0  0  0  0  0  0
  -86.2179   31.4087   -0.4611 C   0  0  0  0  0  0  0  0  0  0  0  0
  -86.8994   30.6120   -1.1533 O   0  0  0  0  0  0  0  0  0  0  0  0
  -86.4877   32.7864   -0.5767 N   0  0  0  0  0  0  0  0  0  0  0  0
  -85.9738   33.5169   -0.0399 H   0  0  0  0  0  0  0  0  0  0  0  0
  -85.2115   30.8547    0.3983 C   0  0  0  0  0  0  0  0  0  0  0  0
  -83.8870   31.1466    0.1895 C   0  0  0  0  0  0  0  0  0  0  0  0
  -82.8558   30.6458    0.9795 C   0  0  0  0  0  0  0  0  0  0  0  0
  -83.1730   29.8063    2.0369 C   0  0  0  0  0  0  0  0  0  0  0  0
  -84.4982   29.5142    2.2462 C   0  0  0  0  0  0  0  0  0  0  0  0
  -85.5113   30.0136    1.4604 C   0  0  0  0  0  0  0  0  0  0  0  0
  -86.9253   33.5601   -2.8243 C   0  0  0  0  0  0  0  0  0  0  0  0
  -87.6129   34.5411   -3.6323 C   0  0  0  0  0  0  0  0  0  0  0  0
  -87.8465   35.7922   -3.0830 C   0  0  0  0  0  0  0  0  0  0  0  0
  -88.4888   36.7929   -3.7769 C   0  0  0  0  0  0  0  0  0  0  0  0
  -88.9335   36.5713   -5.0823 C   0  0  0  0  0  0  0  0  0  0  0  0
  -88.7064   35.3295   -5.6389 C   0  0  0  0  0  0  0  0  0  0  0  0
  -88.0620   34.3357   -4.9343 C   0  0  0  0  0  0  0  0  0  0  0  0
  -90.7858   30.7506   -4.1412 C   0  0  0  0  0  0  0  0  0  0  0  0
  -91.9982   31.5616   -4.3853 C   0  0  0  0  0  0  0  0  0  0  0  0
  -93.0006   30.9919   -5.3506 C   0  0  0  0  0  0  0  0  0  0  0  0
  -91.5145   32.8926   -4.9818 C   0  0  0  0  0  0  0  0  0  0  0  0
  -89.5194   27.8842   -0.2923 C   0  0  0  0  0  0  0  0  0  0  0  0
  -90.7214   27.1269    0.0845 C   0  0  0  0  0  0  0  0  0  0  0  0
  -91.3825   27.4277    1.1032 O   0  0  0  0  0  0  0  0  0  0  0  0
  -91.1878   26.0190   -0.6797 N   0  0  0  0  0  0  0  0  0  0  0  0
  -90.7069   25.7006   -1.5379 H   0  0  0  0  0  0  0  0  0  0  0  0
  -92.3853   25.2472   -0.3085 C   0  0  0  0  0  0  0  0  0  0  0  0
  -92.0369   23.8352   -0.0826 C   0  0  0  0  0  0  0  0  0  0  0  0
  -92.5749   23.0218   -0.9460 O   0  0  0  0  0  0  0  0  0  0  0  0
  -91.2439   23.2555    0.8813 N   0  0  0  0  0  0  0  0  0  0  0  0
  -90.4907   23.8340    1.9513 C   0  0  0  0  0  0  0  0  0  0  0  0
  -90.6284   22.8512    3.1076 C   0  0  0  0  0  0  0  0  0  0  0  0
  -91.0061   21.5476    2.4758 C   0  0  0  0  0  0  0  0  0  0  0  0
  -90.9937   21.8079    1.0110 C   0  0  0  0  0  0  0  0  0  0  0  0
  -89.6498   21.4588    0.4852 C   0  0  0  0  0  0  0  0  0  0  0  0
  -88.8082   20.6472    1.2726 N   0  0  0  0  0  0  0  0  0  0  0  0
  -89.2062   21.8422   -0.6270 O   0  0  0  0  0  0  0  0  0  0  0  0
  -88.8454   20.7115    2.2996 H   0  0  0  0  0  0  0  0  0  0  0  0
  -88.1542   19.9901    0.8204 H   0  0  0  0  0  0  0  0  0  0  0  0
  -93.4456   25.4609   -1.3645 C   0  0  0  0  0  0  0  0  0  0  0  0
  -92.8842   26.1653   -2.5828 C   0  0  0  0  0  0  0  0  0  0  0  0
  -93.1352   25.2252   -3.7587 C   0  0  0  0  0  0  0  0  0  0  0  0
  -93.6265   27.4405   -2.9185 C   0  0  0  0  0  0  0  0  0  0  0  0
  -88.5092   27.9613    0.8231 C   0  0  0  0  0  0  0  0  0  0  0  0
  -88.0750   26.6216    1.3489 C   0  0  0  0  0  0  0  0  0  0  0  0
  -86.5453   26.5374    1.2166 C   0  0  0  0  0  0  0  0  0  0  0  0
  -88.3611   26.4465    2.8242 C   0  0  0  0  0  0  0  0  0  0  0  0
 15 11  1  0  0  0
 11 12  2  0  0  0
 11 13  1  0  0  0
 13 10  1  0  0  0
 10 21  1  0  0  0
 21 22  1  0  0  0
 22 23  2  0  0  0
 23 24  1  0  0  0
 24 25  2  0  0  0
 25 26  1  0  0  0
 26 27  2  0  0  0
 10  6  1  0  0  0
  6  7  2  0  0  0
  6  8  1  0  0  0
  8  5  1  0  0  0
  5 28  1  0  0  0
 28 29  1  0  0  0
 29 30  1  0  0  0
 29 31  1  0  0  0
  5  1  1  0  0  0
  1  2  2  0  0  0
  1  3  1  0  0  0
  3 32  1  0  0  0
 32 54  1  0  0  0
 54 55  1  0  0  0
 55 56  1  0  0  0
 55 57  1  0  0  0
 32 33  1  0  0  0
 33 34  2  0  0  0
 33 35  1  0  0  0
 35 37  1  0  0  0
 37 50  1  0  0  0
 50 51  1  0  0  0
 51 52  1  0  0  0
 51 53  1  0  0  0
 37 38  1  0  0  0
 38 39  2  0  0  0
 38 40  1  0  0  0
 40 41  1  0  0  0
 41 42  1  0  0  0
 42 43  1  0  0  0
 43 44  1  0  0  0
 44 45  1  0  0  0
 45 46  1  0  0  0
 45 47  2  0  0  0
 15 16  2  0  0  0
 16 17  1  0  0  0
 17 18  2  0  0  0
 18 19  1  0  0  0
 19 20  2  0  0  0
 20 15  1  0  0  0
 27 22  1  0  0  0
 44 40  1  0  0  0
 13 14  1  0  0  0
  8  9  1  0  0  0
  3  4  1  0  0  0
 35 36  1  0  0  0
 46 48  1  0  0  0
 46 49  1  0  0  0
M  END
> <minimizedAffinity>
-8.71530

> <CNNscore>
0.0867620036

> <CNNaffinity>
6.7362122536

> <CNN_VS>
0.5844472647

> <CNNaffinity_variance>
1.1975079775

$$$$
[H]C1=C(C(=O)N([H])[H])N(C(=O)c2c([H])c([H])c(-c3c([H])nc([H])c([H])c3[H])c([H])c2[H])c2c([H])c([H])c([H])c([H])c2N=C1Oc1c([H])c([H])c([H])c([H])c1C([H])([H])[H]


 38 42  0  0  0  0  0  0  0  0999 V2000
  -87.3049   28.2282   -1.6536 C   0  0  0  0  0  0  0  0  0  0  0  0
  -86.5338   29.1609   -1.0545 C   0  0  0  0  0  0  0  0  0  0  0  0
  -86.7246   29.9102    0.1722 C   0  0  0  0  0  0  0  0  0  0  0  0
  -87.7155   29.8269    1.0287 N   0  0  0  0  0  0  0  0  0  0  0  0
  -88.8456   28.9807    0.9658 C   0  0  0  0  0  0  0  0  0  0  0  0
  -89.6375   29.1610    2.0807 C   0  0  0  0  0  0  0  0  0  0  0  0
  -90.7895   28.4372    2.2336 C   0  0  0  0  0  0  0  0  0  0  0  0
  -91.1870   27.5050    1.2696 C   0  0  0  0  0  0  0  0  0  0  0  0
  -90.4056   27.3186    0.1568 C   0  0  0  0  0  0  0  0  0  0  0  0
  -89.2458   28.0448   -0.0012 C   0  0  0  0  0  0  0  0  0  0  0  0
  -88.5636   27.7208   -1.2190 N   0  0  0  0  0  0  0  0  0  0  0  0
  -89.2396   26.8161   -2.0394 C   0  0  0  0  0  0  0  0  0  0  0  0
  -89.0392   25.5548   -1.9311 O   0  0  0  0  0  0  0  0  0  0  0  0
  -90.2114   27.2098   -3.0670 C   0  0  0  0  0  0  0  0  0  0  0  0
  -91.0688   28.2757   -2.9308 C   0  0  0  0  0  0  0  0  0  0  0  0
  -91.9757   28.6486   -3.8833 C   0  0  0  0  0  0  0  0  0  0  0  0
  -92.0392   27.9148   -5.0543 C   0  0  0  0  0  0  0  0  0  0  0  0
  -91.1942   26.8284   -5.2406 C   0  0  0  0  0  0  0  0  0  0  0  0
  -90.2830   26.4865   -4.2361 C   0  0  0  0  0  0  0  0  0  0  0  0
  -93.0059   28.3224   -6.0560 C   0  0  0  0  0  0  0  0  0  0  0  0
  -94.0945   27.5249   -6.3291 C   0  0  0  0  0  0  0  0  0  0  0  0
  -95.0387   27.8864   -7.2837 C   0  0  0  0  0  0  0  0  0  0  0  0
  -94.8570   29.0713   -7.9548 C   0  0  0  0  0  0  0  0  0  0  0  0
  -93.7888   29.8393   -7.6769 N   0  0  0  0  0  0  0  0  0  0  0  0
  -92.8605   29.5001   -6.7494 C   0  0  0  0  0  0  0  0  0  0  0  0
  -86.8746   28.4523   -4.0843 N   0  0  0  0  0  0  0  0  0  0  0  0
  -86.7156   27.7453   -2.8721 C   0  0  0  0  0  0  0  0  0  0  0  0
  -86.0478   26.6998   -2.9224 O   0  0  0  0  0  0  0  0  0  0  0  0
  -86.0655   28.9186   -4.5352 H   0  0  0  0  0  0  0  0  0  0  0  0
  -87.8046   28.5127   -4.5380 H   0  0  0  0  0  0  0  0  0  0  0  0
  -85.8071   30.8575    0.5856 O   0  0  0  0  0  0  0  0  0  0  0  0
  -85.3163   31.8883   -0.2233 C   0  0  0  0  0  0  0  0  0  0  0  0
  -85.3143   33.2082    0.1346 C   0  0  0  0  0  0  0  0  0  0  0  0
  -84.8120   34.2104   -0.7035 C   0  0  0  0  0  0  0  0  0  0  0  0
  -84.2959   33.8886   -1.9346 C   0  0  0  0  0  0  0  0  0  0  0  0
  -84.3045   32.5581   -2.2794 C   0  0  0  0  0  0  0  0  0  0  0  0
  -84.7919   31.5685   -1.4712 C   0  0  0  0  0  0  0  0  0  0  0  0
  -84.7851   30.1373   -1.8779 C   0  0  0  0  0  0  0  0  0  0  0  0
 26 27  1  0  0  0
 27 28  2  0  0  0
 27  1  1  0  0  0
  1  2  2  0  0  0
  2  3  1  0  0  0
  3 31  1  0  0  0
 31 32  1  0  0  0
 32 33  2  0  0  0
 33 34  1  0  0  0
 34 35  2  0  0  0
 35 36  1  0  0  0
 36 37  2  0  0  0
 37 38  1  0  0  0
  3  4  2  0  0  0
  4  5  1  0  0  0
  5  6  2  0  0  0
  6  7  1  0  0  0
  7  8  2  0  0  0
  8  9  1  0  0  0
  9 10  2  0  0  0
 10 11  1  0  0  0
 11 12  1  0  0  0
 12 13  2  0  0  0
 12 14  1  0  0  0
 14 15  2  0  0  0
 15 16  1  0  0  0
 16 17  2  0  0  0
 17 18  1  0  0  0
 18 19  2  0  0  0
 17 20  1  0  0  0
 20 21  2  0  0  0
 21 22  1  0  0  0
 22 23  2  0  0  0
 23 24  1  0  0  0
 24 25  2  0  0  0
 11  1  1  0  0  0
 19 14  1  0  0  0
 25 20  1  0  0  0
 37 32  1  0  0  0
 10  5  1  0  0  0
 26 29  1  0  0  0
 26 30  1  0  0  0
M  END
> <minimizedAffinity>
14.01329

> <CNNscore>
0.3814312518

> <CNNaffinity>
6.2987804413

> <CNN_VS>
2.4025516510

> <CNNaffinity_variance>
1.3712680340

$$$$
[H]C1=C(C(=O)N([H])[H])N(C(=O)c2c([H])c([H])c(-c3c([H])nc([H])c([H])c3[H])c([H])c2[H])c2c([H])c([H])c([H])c([H])c2N=C1Oc1c([H])c([H])c([H])c([H])c1C([H])([H])[H]


 38 42  0  0  0  0  0  0  0  0999 V2000
  -92.6518   27.0789   -0.4797 C   0  0  0  0  0  0  0  0  0  0  0  0
  -93.2560   26.1856   -1.2923 C   0  0  0  0  0  0  0  0  0  0  0  0
  -93.1370   24.7430   -1.3783 C   0  0  0  0  0  0  0  0  0  0  0  0
  -92.4082   23.9427   -0.6360 N   0  0  0  0  0  0  0  0  0  0  0  0
  -91.5569   24.2925    0.4363 C   0  0  0  0  0  0  0  0  0  0  0  0
  -91.0000   23.1589    0.9908 C   0  0  0  0  0  0  0  0  0  0  0  0
  -90.1411   23.2601    2.0522 C   0  0  0  0  0  0  0  0  0  0  0  0
  -89.8110   24.5063    2.5946 C   0  0  0  0  0  0  0  0  0  0  0  0
  -90.3601   25.6400    2.0496 C   0  0  0  0  0  0  0  0  0  0  0  0
  -91.2246   25.5428    0.9816 C   0  0  0  0  0  0  0  0  0  0  0  0
  -91.6947   26.8242    0.5450 N   0  0  0  0  0  0  0  0  0  0  0  0
  -91.1257   27.9094    1.2137 C   0  0  0  0  0  0  0  0  0  0  0  0
  -91.6722   28.3910    2.2683 O   0  0  0  0  0  0  0  0  0  0  0  0
  -89.8896   28.5775    0.7881 C   0  0  0  0  0  0  0  0  0  0  0  0
  -89.6541   28.9848   -0.5035 C   0  0  0  0  0  0  0  0  0  0  0  0
  -88.5061   29.6079   -0.9070 C   0  0  0  0  0  0  0  0  0  0  0  0
  -87.5206   29.8451    0.0343 C   0  0  0  0  0  0  0  0  0  0  0  0
  -87.7100   29.4527    1.3531 C   0  0  0  0  0  0  0  0  0  0  0  0
  -88.9023   28.8184    1.7167 C   0  0  0  0  0  0  0  0  0  0  0  0
  -86.3082   30.5073   -0.4083 C   0  0  0  0  0  0  0  0  0  0  0  0
  -85.0805   29.9337   -0.1650 C   0  0  0  0  0  0  0  0  0  0  0  0
  -83.8999   30.5429   -0.5753 C   0  0  0  0  0  0  0  0  0  0  0  0
  -83.9892   31.7440   -1.2363 C   0  0  0  0  0  0  0  0  0  0  0  0
  -85.1956   32.2916   -1.4664 N   0  0  0  0  0  0  0  0  0  0  0  0
  -86.3546   31.7096   -1.0725 C   0  0  0  0  0  0  0  0  0  0  0  0
  -94.3593   28.8718   -0.3633 N   0  0  0  0  0  0  0  0  0  0  0  0
  -93.0766   28.4248   -0.7500 C   0  0  0  0  0  0  0  0  0  0  0  0
  -92.3514   29.2507   -1.3275 O   0  0  0  0  0  0  0  0  0  0  0  0
  -94.4693   29.5823    0.3839 H   0  0  0  0  0  0  0  0  0  0  0  0
  -95.2073   28.4935   -0.8240 H   0  0  0  0  0  0  0  0  0  0  0  0
  -93.8357   24.0197   -2.3264 O   0  0  0  0  0  0  0  0  0  0  0  0
  -94.0305   22.6350   -2.2787 C   0  0  0  0  0  0  0  0  0  0  0  0
  -95.2531   22.0296   -2.3734 C   0  0  0  0  0  0  0  0  0  0  0  0
  -95.4059   20.6391   -2.3228 C   0  0  0  0  0  0  0  0  0  0  0  0
  -94.3085   19.8273   -2.1740 C   0  0  0  0  0  0  0  0  0  0  0  0
  -93.0871   20.4508   -2.0809 C   0  0  0  0  0  0  0  0  0  0  0  0
  -92.9227   21.8075   -2.1284 C   0  0  0  0  0  0  0  0  0  0  0  0
  -91.5838   22.4481   -2.0242 C   0  0  0  0  0  0  0  0  0  0  0  0
 26 27  1  0  0  0
 27 28  2  0  0  0
 27  1  1  0  0  0
  1  2  2  0  0  0
  2  3  1  0  0  0
  3 31  1  0  0  0
 31 32  1  0  0  0
 32 33  2  0  0  0
 33 34  1  0  0  0
 34 35  2  0  0  0
 35 36  1  0  0  0
 36 37  2  0  0  0
 37 38  1  0  0  0
  3  4  2  0  0  0
  4  5  1  0  0  0
  5  6  2  0  0  0
  6  7  1  0  0  0
  7  8  2  0  0  0
  8  9  1  0  0  0
  9 10  2  0  0  0
 10 11  1  0  0  0
 11 12  1  0  0  0
 12 13  2  0  0  0
 12 14  1  0  0  0
 14 15  2  0  0  0
 15 16  1  0  0  0
 16 17  2  0  0  0
 17 18  1  0  0  0
 18 19  2  0  0  0
 17 20  1  0  0  0
 20 21  2  0  0  0
 21 22  1  0  0  0
 22 23  2  0  0  0
 23 24  1  0  0  0
 24 25  2  0  0  0
 11  1  1  0  0  0
 19 14  1  0  0  0
 25 20  1  0  0  0
 37 32  1  0  0  0
 10  5  1  0  0  0
 26 29  1  0  0  0
 26 30  1  0  0  0
M  END
> <minimizedAffinity>
4.37696

> <CNNscore>
0.3678734601

> <CNNaffinity>
5.9954743385

> <CNN_VS>
2.2055759430

> <CNNaffinity_variance>
1.7773530483

$$$$
[H]C1=C(C(=O)N([H])[H])N(C(=O)c2c([H])c([H])c(-c3c([H])nc([H])c([H])c3[H])c([H])c2[H])c2c([H])c([H])c([H])c([H])c2N=C1Oc1c([H])c([H])c([H])c([H])c1C([H])([H])[H]


 38 42  0  0  0  0  0  0  0  0999 V2000
  -88.1850   32.4589   -5.2750 C   0  0  0  0  0  0  0  0  0  0  0  0
  -88.3176   33.4788   -6.1500 C   0  0  0  0  0  0  0  0  0  0  0  0
  -88.6298   34.8793   -5.9407 C   0  0  0  0  0  0  0  0  0  0  0  0
  -88.8329   35.5049   -4.8051 N   0  0  0  0  0  0  0  0  0  0  0  0
  -88.7955   34.9644   -3.4999 C   0  0  0  0  0  0  0  0  0  0  0  0
  -89.0187   35.9563   -2.5677 C   0  0  0  0  0  0  0  0  0  0  0  0
  -89.0227   35.6593   -1.2312 C   0  0  0  0  0  0  0  0  0  0  0  0
  -88.8021   34.3527   -0.7837 C   0  0  0  0  0  0  0  0  0  0  0  0
  -88.5791   33.3589   -1.7037 C   0  0  0  0  0  0  0  0  0  0  0  0
  -88.5744   33.6532   -3.0494 C   0  0  0  0  0  0  0  0  0  0  0  0
  -88.3292   32.4957   -3.8577 N   0  0  0  0  0  0  0  0  0  0  0  0
  -88.2355   31.2994   -3.1444 C   0  0  0  0  0  0  0  0  0  0  0  0
  -87.1045   30.8796   -2.7116 O   0  0  0  0  0  0  0  0  0  0  0  0
  -89.3839   30.4398   -2.8319 C   0  0  0  0  0  0  0  0  0  0  0  0
  -90.6006   30.9229   -2.4124 C   0  0  0  0  0  0  0  0  0  0  0  0
  -91.6743   30.1288   -2.1203 C   0  0  0  0  0  0  0  0  0  0  0  0
  -91.5347   28.7589   -2.2526 C   0  0  0  0  0  0  0  0  0  0  0  0
  -90.3254   28.2207   -2.6732 C   0  0  0  0  0  0  0  0  0  0  0  0
  -89.2559   29.0751   -2.9602 C   0  0  0  0  0  0  0  0  0  0  0  0
  -92.6825   27.9290   -1.9395 C   0  0  0  0  0  0  0  0  0  0  0  0
  -92.5170   26.7633   -1.2258 C   0  0  0  0  0  0  0  0  0  0  0  0
  -93.5962   25.9453   -0.9101 C   0  0  0  0  0  0  0  0  0  0  0  0
  -94.8449   26.3327   -1.3321 C   0  0  0  0  0  0  0  0  0  0  0  0
  -94.9904   27.4739   -2.0283 N   0  0  0  0  0  0  0  0  0  0  0  0
  -93.9481   28.2810   -2.3434 C   0  0  0  0  0  0  0  0  0  0  0  0
  -86.6085   30.6058   -5.7486 N   0  0  0  0  0  0  0  0  0  0  0  0
  -87.8652   31.2228   -5.9345 C   0  0  0  0  0  0  0  0  0  0  0  0
  -88.6624   30.6428   -6.6891 O   0  0  0  0  0  0  0  0  0  0  0  0
  -86.5307   29.7060   -5.2390 H   0  0  0  0  0  0  0  0  0  0  0  0
  -85.7475   31.0469   -6.1208 H   0  0  0  0  0  0  0  0  0  0  0  0
  -88.7527   35.7545   -7.0032 O   0  0  0  0  0  0  0  0  0  0  0  0
  -89.9694   36.2586   -7.4755 C   0  0  0  0  0  0  0  0  0  0  0  0
  -91.0102   35.4781   -7.8970 C   0  0  0  0  0  0  0  0  0  0  0  0
  -92.2135   36.0217   -8.3615 C   0  0  0  0  0  0  0  0  0  0  0  0
  -92.3856   37.3832   -8.4072 C   0  0  0  0  0  0  0  0  0  0  0  0
  -91.3308   38.1539   -7.9798 C   0  0  0  0  0  0  0  0  0  0  0  0
  -90.1498   37.6369   -7.5239 C   0  0  0  0  0  0  0  0  0  0  0  0
  -89.0285   38.5025   -7.0687 C   0  0  0  0  0  0  0  0  0  0  0  0
 26 27  1  0  0  0
 27 28  2  0  0  0
 27  1  1  0  0  0
  1  2  2  0  0  0
  2  3  1  0  0  0
  3 31  1  0  0  0
 31 32  1  0  0  0
 32 33  2  0  0  0
 33 34  1  0  0  0
 34 35  2  0  0  0
 35 36  1  0  0  0
 36 37  2  0  0  0
 37 38  1  0  0  0
  3  4  2  0  0  0
  4  5  1  0  0  0
  5  6  2  0  0  0
  6  7  1  0  0  0
  7  8  2  0  0  0
  8  9  1  0  0  0
  9 10  2  0  0  0
 10 11  1  0  0  0
 11 12  1  0  0  0
 12 13  2  0  0  0
 12 14  1  0  0  0
 14 15  2  0  0  0
 15 16  1  0  0  0
 16 17  2  0  0  0
 17 18  1  0  0  0
 18 19  2  0  0  0
 17 20  1  0  0  0
 20 21  2  0  0  0
 21 22  1  0  0  0
 22 23  2  0  0  0
 23 24  1  0  0  0
 24 25  2  0  0  0
 11  1  1  0  0  0
 19 14  1  0  0  0
 25 20  1  0  0  0
 37 32  1  0  0  0
 10  5  1  0  0  0
 26 29  1  0  0  0
 26 30  1  0  0  0
M  END
> <minimizedAffinity>
17.89212

> <CNNscore>
0.3058795035

> <CNNaffinity>
5.7402267456

> <CNN_VS>
1.7558176517

> <CNNaffinity_variance>
1.0205060244

$$$$
[H]C1=C(C(=O)N([H])[H])N(C(=O)c2c([H])c([H])c(-c3c([H])nc([H])c([H])c3[H])c([H])c2[H])c2c([H])c([H])c([H])c([H])c2N=C1Oc1c([H])c([H])c([H])c([H])c1C([H])([H])[H]


 38 42  0  0  0  0  0  0  0  0999 V2000
  -86.8404   32.1765   -1.8400 C   0  0  0  0  0  0  0  0  0  0  0  0
  -86.3749   31.8571   -0.6134 C   0  0  0  0  0  0  0  0  0  0  0  0
  -86.7598   30.8056    0.3079 C   0  0  0  0  0  0  0  0  0  0  0  0
  -87.6640   29.8694    0.1393 N   0  0  0  0  0  0  0  0  0  0  0  0
  -88.4880   29.6543   -0.9884 C   0  0  0  0  0  0  0  0  0  0  0  0
  -89.2769   28.5394   -0.7954 C   0  0  0  0  0  0  0  0  0  0  0  0
  -90.1547   28.1384   -1.7665 C   0  0  0  0  0  0  0  0  0  0  0  0
  -90.2708   28.8450   -2.9679 C   0  0  0  0  0  0  0  0  0  0  0  0
  -89.4900   29.9556   -3.1692 C   0  0  0  0  0  0  0  0  0  0  0  0
  -88.6056   30.3628   -2.1947 C   0  0  0  0  0  0  0  0  0  0  0  0
  -87.8799   31.5379   -2.5765 N   0  0  0  0  0  0  0  0  0  0  0  0
  -88.2672   32.0867   -3.8002 C   0  0  0  0  0  0  0  0  0  0  0  0
  -87.6945   31.7309   -4.8903 O   0  0  0  0  0  0  0  0  0  0  0  0
  -89.3310   33.0874   -3.9494 C   0  0  0  0  0  0  0  0  0  0  0  0
  -89.2380   34.3707   -3.4656 C   0  0  0  0  0  0  0  0  0  0  0  0
  -90.2240   35.3078   -3.6012 C   0  0  0  0  0  0  0  0  0  0  0  0
  -91.3851   34.9501   -4.2626 C   0  0  0  0  0  0  0  0  0  0  0  0
  -91.5284   33.6653   -4.7702 C   0  0  0  0  0  0  0  0  0  0  0  0
  -90.4907   32.7420   -4.6059 C   0  0  0  0  0  0  0  0  0  0  0  0
  -92.4224   35.9550   -4.3992 C   0  0  0  0  0  0  0  0  0  0  0  0
  -92.4025   37.0795   -3.6052 C   0  0  0  0  0  0  0  0  0  0  0  0
  -93.3821   38.0608   -3.7107 C   0  0  0  0  0  0  0  0  0  0  0  0
  -94.3808   37.8788   -4.6364 C   0  0  0  0  0  0  0  0  0  0  0  0
  -94.3865   36.7752   -5.4046 N   0  0  0  0  0  0  0  0  0  0  0  0
  -93.4388   35.8105   -5.3130 C   0  0  0  0  0  0  0  0  0  0  0  0
  -84.9333   33.1528   -3.0864 N   0  0  0  0  0  0  0  0  0  0  0  0
  -86.1555   33.3106   -2.3965 C   0  0  0  0  0  0  0  0  0  0  0  0
  -86.5941   34.4683   -2.3016 O   0  0  0  0  0  0  0  0  0  0  0  0
  -84.8760   33.3233   -4.1077 H   0  0  0  0  0  0  0  0  0  0  0  0
  -84.0775   32.8640   -2.5778 H   0  0  0  0  0  0  0  0  0  0  0  0
  -86.1626   30.6827    1.5482 O   0  0  0  0  0  0  0  0  0  0  0  0
  -85.1335   29.7823    1.8442 C   0  0  0  0  0  0  0  0  0  0  0  0
  -85.3363   28.4807    2.2115 C   0  0  0  0  0  0  0  0  0  0  0  0
  -84.2785   27.6101    2.4982 C   0  0  0  0  0  0  0  0  0  0  0  0
  -82.9798   28.0486    2.4163 C   0  0  0  0  0  0  0  0  0  0  0  0
  -82.7925   29.3588    2.0454 C   0  0  0  0  0  0  0  0  0  0  0  0
  -83.8159   30.2205    1.7627 C   0  0  0  0  0  0  0  0  0  0  0  0
  -83.5754   31.6337    1.3640 C   0  0  0  0  0  0  0  0  0  0  0  0
 26 27  1  0  0  0
 27 28  2  0  0  0
 27  1  1  0  0  0
  1  2  2  0  0  0
  2  3  1  0  0  0
  3 31  1  0  0  0
 31 32  1  0  0  0
 32 33  2  0  0  0
 33 34  1  0  0  0
 34 35  2  0  0  0
 35 36  1  0  0  0
 36 37  2  0  0  0
 37 38  1  0  0  0
  3  4  2  0  0  0
  4  5  1  0  0  0
  5  6  2  0  0  0
  6  7  1  0  0  0
  7  8  2  0  0  0
  8  9  1  0  0  0
  9 10  2  0  0  0
 10 11  1  0  0  0
 11 12  1  0  0  0
 12 13  2  0  0  0
 12 14  1  0  0  0
 14 15  2  0  0  0
 15 16  1  0  0  0
 16 17  2  0  0  0
 17 18  1  0  0  0
 18 19  2  0  0  0
 17 20  1  0  0  0
 20 21  2  0  0  0
 21 22  1  0  0  0
 22 23  2  0  0  0
 23 24  1  0  0  0
 24 25  2  0  0  0
 11  1  1  0  0  0
 19 14  1  0  0  0
 25 20  1  0  0  0
 37 32  1  0  0  0
 10  5  1  0  0  0
 26 29  1  0  0  0
 26 30  1  0  0  0
M  END
> <minimizedAffinity>
-8.63882

> <CNNscore>
0.2267977148

> <CNNaffinity>
6.7829923630

> <CNN_VS>
1.5383671522

> <CNNaffinity_variance>
0.4126415253

$$$$
[H]C1=C(C(=O)N([H])[H])N(C(=O)c2c([H])c([H])c(-c3c([H])nc([H])c([H])c3[H])c([H])c2[H])c2c([H])c([H])c([H])c([H])c2N=C1Oc1c([H])c([H])c([H])c([H])c1C([H])([H])[H]


 38 42  0  0  0  0  0  0  0  0999 V2000
  -87.9400   32.8408   -2.5537 C   0  0  0  0  0  0  0  0  0  0  0  0
  -87.4390   32.3092   -1.4180 C   0  0  0  0  0  0  0  0  0  0  0  0
  -87.8259   31.1315   -0.6656 C   0  0  0  0  0  0  0  0  0  0  0  0
  -88.7694   30.2631   -0.9453 N   0  0  0  0  0  0  0  0  0  0  0  0
  -89.6439   30.2620   -2.0553 C   0  0  0  0  0  0  0  0  0  0  0  0
  -90.4648   29.1543   -2.0131 C   0  0  0  0  0  0  0  0  0  0  0  0
  -91.3937   28.9456   -2.9969 C   0  0  0  0  0  0  0  0  0  0  0  0
  -91.5307   29.8444   -4.0597 C   0  0  0  0  0  0  0  0  0  0  0  0
  -90.7184   30.9496   -4.1104 C   0  0  0  0  0  0  0  0  0  0  0  0
  -89.7825   31.1636   -3.1226 C   0  0  0  0  0  0  0  0  0  0  0  0
  -89.0299   32.3638   -3.3382 N   0  0  0  0  0  0  0  0  0  0  0  0
  -89.4443   33.1188   -4.4368 C   0  0  0  0  0  0  0  0  0  0  0  0
  -88.9278   32.9315   -5.5948 O   0  0  0  0  0  0  0  0  0  0  0  0
  -90.4761   34.1612   -4.3724 C   0  0  0  0  0  0  0  0  0  0  0  0
  -91.7682   33.9766   -4.8035 C   0  0  0  0  0  0  0  0  0  0  0  0
  -92.7342   34.9422   -4.7461 C   0  0  0  0  0  0  0  0  0  0  0  0
  -92.3983   36.1787   -4.2250 C   0  0  0  0  0  0  0  0  0  0  0  0
  -91.1056   36.4159   -3.7757 C   0  0  0  0  0  0  0  0  0  0  0  0
  -90.1525   35.3954   -3.8556 C   0  0  0  0  0  0  0  0  0  0  0  0
  -93.4336   37.1933   -4.1700 C   0  0  0  0  0  0  0  0  0  0  0  0
  -94.3256   37.3260   -5.2103 C   0  0  0  0  0  0  0  0  0  0  0  0
  -95.3288   38.2885   -5.1889 C   0  0  0  0  0  0  0  0  0  0  0  0
  -95.4092   39.1127   -4.0926 C   0  0  0  0  0  0  0  0  0  0  0  0
  -94.5307   38.9708   -3.0845 N   0  0  0  0  0  0  0  0  0  0  0  0
  -93.5478   38.0375   -3.0914 C   0  0  0  0  0  0  0  0  0  0  0  0
  -86.6630   34.1430   -4.2321 N   0  0  0  0  0  0  0  0  0  0  0  0
  -87.2365   34.0307   -2.9464 C   0  0  0  0  0  0  0  0  0  0  0  0
  -87.0980   35.0051   -2.1895 O   0  0  0  0  0  0  0  0  0  0  0  0
  -87.0447   34.8131   -4.9253 H   0  0  0  0  0  0  0  0  0  0  0  0
  -85.8515   33.5551   -4.4975 H   0  0  0  0  0  0  0  0  0  0  0  0
  -87.1857   30.7876    0.5099 O   0  0  0  0  0  0  0  0  0  0  0  0
  -85.7993   30.8238    0.6948 C   0  0  0  0  0  0  0  0  0  0  0  0
  -85.0281   31.9348    0.4922 C   0  0  0  0  0  0  0  0  0  0  0  0
  -83.6424   31.9306    0.6901 C   0  0  0  0  0  0  0  0  0  0  0  0
  -83.0058   30.7859    1.1024 C   0  0  0  0  0  0  0  0  0  0  0  0
  -83.7946   29.6782    1.3022 C   0  0  0  0  0  0  0  0  0  0  0  0
  -85.1489   29.6675    1.1127 C   0  0  0  0  0  0  0  0  0  0  0  0
  -85.9716   28.4486    1.3389 C   0  0  0  0  0  0  0  0  0  0  0  0
 26 27  1  0  0  0
 27 28  2  0  0  0
 27  1  1  0  0  0
  1  2  2  0  0  0
  2  3  1  0  0  0
  3 31  1  0  0  0
 31 32  1  0  0  0
 32 33  2  0  0  0
 33 34  1  0  0  0
 34 35  2  0  0  0
 35 36  1  0  0  0
 36 37  2  0  0  0
 37 38  1  0  0  0
  3  4  2  0  0  0
  4  5  1  0  0  0
  5  6  2  0  0  0
  6  7  1  0  0  0
  7  8  2  0  0  0
  8  9  1  0  0  0
  9 10  2  0  0  0
 10 11  1  0  0  0
 11 12  1  0  0  0
 12 13  2  0  0  0
 12 14  1  0  0  0
 14 15  2  0  0  0
 15 16  1  0  0  0
 16 17  2  0  0  0
 17 18  1  0  0  0
 18 19  2  0  0  0
 17 20  1  0  0  0
 20 21  2  0  0  0
 21 22  1  0  0  0
 22 23  2  0  0  0
 23 24  1  0  0  0
 24 25  2  0  0  0
 11  1  1  0  0  0
 19 14  1  0  0  0
 25 20  1  0  0  0
 37 32  1  0  0  0
 10  5  1  0  0  0
 26 29  1  0  0  0
 26 30  1  0  0  0
M  END
> <minimizedAffinity>
-8.04686

> <CNNscore>
0.2072070837

> <CNNaffinity>
6.4964637756

> <CNN_VS>
1.3461133242

> <CNNaffinity_variance>
0.1438223571

$$$$
[H]C1=C(C(=O)N([H])[H])N(C(=O)c2c([H])c([H])c(-c3c([H])nc([H])c([H])c3[H])c([H])c2[H])c2c([H])c([H])c([H])c([H])c2N=C1Oc1c([H])c([H])c([H])c([H])c1C([H])([H])[H]


 38 42  0  0  0  0  0  0  0  0999 V2000
  -88.0441   31.4053   -2.8254 C   0  0  0  0  0  0  0  0  0  0  0  0
  -87.1380   31.4838   -1.8273 C   0  0  0  0  0  0  0  0  0  0  0  0
  -87.2091   31.0653   -0.4408 C   0  0  0  0  0  0  0  0  0  0  0  0
  -88.1992   30.4639    0.1761 N   0  0  0  0  0  0  0  0  0  0  0  0
  -89.4456   30.0731   -0.3632 C   0  0  0  0  0  0  0  0  0  0  0  0
  -90.1980   29.4285    0.5965 C   0  0  0  0  0  0  0  0  0  0  0  0
  -91.4469   28.9569    0.2927 C   0  0  0  0  0  0  0  0  0  0  0  0
  -91.9846   29.1167   -0.9885 C   0  0  0  0  0  0  0  0  0  0  0  0
  -91.2434   29.7567   -1.9501 C   0  0  0  0  0  0  0  0  0  0  0  0
  -89.9865   30.2330   -1.6488 C   0  0  0  0  0  0  0  0  0  0  0  0
  -89.3647   30.8726   -2.7704 N   0  0  0  0  0  0  0  0  0  0  0  0
  -90.1731   30.9695   -3.9043 C   0  0  0  0  0  0  0  0  0  0  0  0
  -90.1678   30.0483   -4.7954 O   0  0  0  0  0  0  0  0  0  0  0  0
  -91.0755   32.0959   -4.1732 C   0  0  0  0  0  0  0  0  0  0  0  0
  -92.4400   31.9659   -4.2776 C   0  0  0  0  0  0  0  0  0  0  0  0
  -93.2864   33.0099   -4.5272 C   0  0  0  0  0  0  0  0  0  0  0  0
  -92.7446   34.2729   -4.6848 C   0  0  0  0  0  0  0  0  0  0  0  0
  -91.3714   34.4572   -4.5885 C   0  0  0  0  0  0  0  0  0  0  0  0
  -90.5468   33.3571   -4.3317 C   0  0  0  0  0  0  0  0  0  0  0  0
  -93.6549   35.3711   -4.9487 C   0  0  0  0  0  0  0  0  0  0  0  0
  -94.5232   35.3064   -6.0151 C   0  0  0  0  0  0  0  0  0  0  0  0
  -95.4076   36.3421   -6.2958 C   0  0  0  0  0  0  0  0  0  0  0  0
  -95.3937   37.4431   -5.4743 C   0  0  0  0  0  0  0  0  0  0  0  0
  -94.5398   37.4915   -4.4366 N   0  0  0  0  0  0  0  0  0  0  0  0
  -93.6723   36.4900   -4.1509 C   0  0  0  0  0  0  0  0  0  0  0  0
  -87.2584   33.3303   -4.1747 N   0  0  0  0  0  0  0  0  0  0  0  0
  -87.5385   31.9513   -4.0547 C   0  0  0  0  0  0  0  0  0  0  0  0
  -87.3252   31.2519   -5.0582 O   0  0  0  0  0  0  0  0  0  0  0  0
  -86.2824   33.6654   -4.2759 H   0  0  0  0  0  0  0  0  0  0  0  0
  -88.0280   34.0246   -4.1631 H   0  0  0  0  0  0  0  0  0  0  0  0
  -86.1565   31.2788    0.4290 O   0  0  0  0  0  0  0  0  0  0  0  0
  -85.4147   30.2604    1.0374 C   0  0  0  0  0  0  0  0  0  0  0  0
  -85.9242   29.0358    1.3707 C   0  0  0  0  0  0  0  0  0  0  0  0
  -85.1478   28.0418    1.9775 C   0  0  0  0  0  0  0  0  0  0  0  0
  -83.8243   28.2739    2.2603 C   0  0  0  0  0  0  0  0  0  0  0  0
  -83.3270   29.5089    1.9187 C   0  0  0  0  0  0  0  0  0  0  0  0
  -84.0736   30.4894    1.3261 C   0  0  0  0  0  0  0  0  0  0  0  0
  -83.5012   31.8159    0.9701 C   0  0  0  0  0  0  0  0  0  0  0  0
 26 27  1  0  0  0
 27 28  2  0  0  0
 27  1  1  0  0  0
  1  2  2  0  0  0
  2  3  1  0  0  0
  3 31  1  0  0  0
 31 32  1  0  0  0
 32 33  2  0  0  0
 33 34  1  0  0  0
 34 35  2  0  0  0
 35 36  1  0  0  0
 36 37  2  0  0  0
 37 38  1  0  0  0
  3  4  2  0  0  0
  4  5  1  0  0  0
  5  6  2  0  0  0
  6  7  1  0  0  0
  7  8  2  0  0  0
  8  9  1  0  0  0
  9 10  2  0  0  0
 10 11  1  0  0  0
 11 12  1  0  0  0
 12 13  2  0  0  0
 12 14  1  0  0  0
 14 15  2  0  0  0
 15 16  1  0  0  0
 16 17  2  0  0  0
 17 18  1  0  0  0
 18 19  2  0  0  0
 17 20  1  0  0  0
 20 21  2  0  0  0
 21 22  1  0  0  0
 22 23  2  0  0  0
 23 24  1  0  0  0
 24 25  2  0  0  0
 11  1  1  0  0  0
 19 14  1  0  0  0
 25 20  1  0  0  0
 37 32  1  0  0  0
 10  5  1  0  0  0
 26 29  1  0  0  0
 26 30  1  0  0  0
M  END
> <minimizedAffinity>
-8.55173

> <CNNscore>
0.2022421062

> <CNNaffinity>
6.4344201088

> <CNN_VS>
1.3013106585

> <CNNaffinity_variance>
0.1947214603

$$$$
[H]C1=C(C(=O)N([H])[H])N(C(=O)c2c([H])c([H])c(-c3c([H])nc([H])c([H])c3[H])c([H])c2[H])c2c([H])c([H])c([H])c([H])c2N=C1Oc1c([H])c([H])c([H])c([H])c1C([H])([H])[H]


 38 42  0  0  0  0  0  0  0  0999 V2000
  -87.5511   27.5972   -0.1916 C   0  0  0  0  0  0  0  0  0  0  0  0
  -86.5890   28.1095    0.6053 C   0  0  0  0  0  0  0  0  0  0  0  0
  -86.5410   28.2951    2.0427 C   0  0  0  0  0  0  0  0  0  0  0  0
  -87.4461   27.9663    2.9344 N   0  0  0  0  0  0  0  0  0  0  0  0
  -88.6961   27.3460    2.7114 C   0  0  0  0  0  0  0  0  0  0  0  0
  -89.3392   27.1269    3.9119 C   0  0  0  0  0  0  0  0  0  0  0  0
  -90.5709   26.5295    3.9361 C   0  0  0  0  0  0  0  0  0  0  0  0
  -91.2007   26.1306    2.7527 C   0  0  0  0  0  0  0  0  0  0  0  0
  -90.5686   26.3444    1.5533 C   0  0  0  0  0  0  0  0  0  0  0  0
  -89.3294   26.9453    1.5243 C   0  0  0  0  0  0  0  0  0  0  0  0
  -88.8266   27.0889    0.1901 N   0  0  0  0  0  0  0  0  0  0  0  0
  -89.7121   26.6840   -0.8102 C   0  0  0  0  0  0  0  0  0  0  0  0
  -89.7034   25.4789   -1.2466 O   0  0  0  0  0  0  0  0  0  0  0  0
  -90.7036   27.5689   -1.4340 C   0  0  0  0  0  0  0  0  0  0  0  0
  -91.3091   28.6125   -0.7754 C   0  0  0  0  0  0  0  0  0  0  0  0
  -92.2326   29.4408   -1.3498 C   0  0  0  0  0  0  0  0  0  0  0  0
  -92.5821   29.2213   -2.6701 C   0  0  0  0  0  0  0  0  0  0  0  0
  -91.9988   28.1796   -3.3797 C   0  0  0  0  0  0  0  0  0  0  0  0
  -91.0587   27.3593   -2.7475 C   0  0  0  0  0  0  0  0  0  0  0  0
  -93.5629   30.1083   -3.2663 C   0  0  0  0  0  0  0  0  0  0  0  0
  -93.5506   30.3378   -4.6238 C   0  0  0  0  0  0  0  0  0  0  0  0
  -94.4761   31.1829   -5.2262 C   0  0  0  0  0  0  0  0  0  0  0  0
  -95.4130   31.7896   -4.4253 C   0  0  0  0  0  0  0  0  0  0  0  0
  -95.4122   31.5555   -3.1011 N   0  0  0  0  0  0  0  0  0  0  0  0
  -94.5166   30.7346   -2.5001 C   0  0  0  0  0  0  0  0  0  0  0  0
  -86.6492   26.4464   -2.1930 N   0  0  0  0  0  0  0  0  0  0  0  0
  -87.1647   27.6073   -1.5756 C   0  0  0  0  0  0  0  0  0  0  0  0
  -87.2617   28.6190   -2.2887 O   0  0  0  0  0  0  0  0  0  0  0  0
  -87.1905   25.9521   -2.9265 H   0  0  0  0  0  0  0  0  0  0  0  0
  -85.7211   26.0748   -1.9190 H   0  0  0  0  0  0  0  0  0  0  0  0
  -85.4504   28.8829    2.6553 O   0  0  0  0  0  0  0  0  0  0  0  0
  -84.5934   29.7982    2.0345 C   0  0  0  0  0  0  0  0  0  0  0  0
  -84.9913   31.0139    1.5507 C   0  0  0  0  0  0  0  0  0  0  0  0
  -84.1015   31.9031    0.9368 C   0  0  0  0  0  0  0  0  0  0  0  0
  -82.7758   31.5720    0.8012 C   0  0  0  0  0  0  0  0  0  0  0  0
  -82.3915   30.3473    1.2930 C   0  0  0  0  0  0  0  0  0  0  0  0
  -83.2494   29.4687    1.8945 C   0  0  0  0  0  0  0  0  0  0  0  0
  -82.7976   28.1502    2.4155 C   0  0  0  0  0  0  0  0  0  0  0  0
 26 27  1  0  0  0
 27 28  2  0  0  0
 27  1  1  0  0  0
  1  2  2  0  0  0
  2  3  1  0  0  0
  3 31  1  0  0  0
 31 32  1  0  0  0
 32 33  2  0  0  0
 33 34  1  0  0  0
 34 35  2  0  0  0
 35 36  1  0  0  0
 36 37  2  0  0  0
 37 38  1  0  0  0
  3  4  2  0  0  0
  4  5  1  0  0  0
  5  6  2  0  0  0
  6  7  1  0  0  0
  7  8  2  0  0  0
  8  9  1  0  0  0
  9 10  2  0  0  0
 10 11  1  0  0  0
 11 12  1  0  0  0
 12 13  2  0  0  0
 12 14  1  0  0  0
 14 15  2  0  0  0
 15 16  1  0  0  0
 16 17  2  0  0  0
 17 18  1  0  0  0
 18 19  2  0  0  0
 17 20  1  0  0  0
 20 21  2  0  0  0
 21 22  1  0  0  0
 22 23  2  0  0  0
 23 24  1  0  0  0
 24 25  2  0  0  0
 11  1  1  0  0  0
 19 14  1  0  0  0
 25 20  1  0  0  0
 37 32  1  0  0  0
 10  5  1  0  0  0
 26 29  1  0  0  0
 26 30  1  0  0  0
M  END
> <minimizedAffinity>
-8.08877

> <CNNscore>
0.2003833503

> <CNNaffinity>
6.6390419006

> <CNN_VS>
1.3303534985

> <CNNaffinity_variance>
0.2332623452

$$$$
[H]C1=C(C(=O)N([H])[H])N(C(=O)c2c([H])c([H])c(-c3c([H])nc([H])c([H])c3[H])c([H])c2[H])c2c([H])c([H])c([H])c([H])c2N=C1Oc1c([H])c([H])c([H])c([H])c1C([H])([H])[H]


 38 42  0  0  0  0  0  0  0  0999 V2000
  -88.9872   29.6823   -0.7370 C   0  0  0  0  0  0  0  0  0  0  0  0
  -89.6611   29.2702    0.3581 C   0  0  0  0  0  0  0  0  0  0  0  0
  -91.0678   28.9810    0.5586 C   0  0  0  0  0  0  0  0  0  0  0  0
  -92.0397   29.0271   -0.3222 N   0  0  0  0  0  0  0  0  0  0  0  0
  -91.9530   29.3706   -1.6903 C   0  0  0  0  0  0  0  0  0  0  0  0
  -93.1905   29.2565   -2.2887 C   0  0  0  0  0  0  0  0  0  0  0  0
  -93.3419   29.5374   -3.6201 C   0  0  0  0  0  0  0  0  0  0  0  0
  -92.2531   29.9435   -4.3983 C   0  0  0  0  0  0  0  0  0  0  0  0
  -91.0177   30.0599   -3.8118 C   0  0  0  0  0  0  0  0  0  0  0  0
  -90.8608   29.7785   -2.4725 C   0  0  0  0  0  0  0  0  0  0  0  0
  -89.5080   29.9569   -2.0348 N   0  0  0  0  0  0  0  0  0  0  0  0
  -88.6447   30.4605   -3.0094 C   0  0  0  0  0  0  0  0  0  0  0  0
  -87.9870   29.6710   -3.7755 O   0  0  0  0  0  0  0  0  0  0  0  0
  -88.4177   31.8922   -3.2420 C   0  0  0  0  0  0  0  0  0  0  0  0
  -87.8055   32.3895   -4.3678 C   0  0  0  0  0  0  0  0  0  0  0  0
  -87.5913   33.7210   -4.5915 C   0  0  0  0  0  0  0  0  0  0  0  0
  -88.0126   34.6253   -3.6332 C   0  0  0  0  0  0  0  0  0  0  0  0
  -88.6365   34.1733   -2.4776 C   0  0  0  0  0  0  0  0  0  0  0  0
  -88.8330   32.8007   -2.2948 C   0  0  0  0  0  0  0  0  0  0  0  0
  -87.7789   36.0347   -3.8844 C   0  0  0  0  0  0  0  0  0  0  0  0
  -88.5240   36.9860   -3.2246 C   0  0  0  0  0  0  0  0  0  0  0  0
  -88.3254   38.3448   -3.4433 C   0  0  0  0  0  0  0  0  0  0  0  0
  -87.3572   38.7188   -4.3434 C   0  0  0  0  0  0  0  0  0  0  0  0
  -86.6377   37.7780   -4.9800 N   0  0  0  0  0  0  0  0  0  0  0  0
  -86.8201   36.4503   -4.7771 C   0  0  0  0  0  0  0  0  0  0  0  0
  -86.6523   28.8635   -0.8831 N   0  0  0  0  0  0  0  0  0  0  0  0
  -87.5835   29.8439   -0.4754 C   0  0  0  0  0  0  0  0  0  0  0  0
  -87.1236   30.8360    0.1126 O   0  0  0  0  0  0  0  0  0  0  0  0
  -85.9652   29.0654   -1.6330 H   0  0  0  0  0  0  0  0  0  0  0  0
  -86.6455   27.9285   -0.4357 H   0  0  0  0  0  0  0  0  0  0  0  0
  -91.5540   28.6002    1.7950 O   0  0  0  0  0  0  0  0  0  0  0  0
  -90.8825   27.7505    2.6808 C   0  0  0  0  0  0  0  0  0  0  0  0
  -90.4626   28.1214    3.9284 C   0  0  0  0  0  0  0  0  0  0  0  0
  -89.7945   27.2401    4.7863 C   0  0  0  0  0  0  0  0  0  0  0  0
  -89.5373   25.9507    4.3903 C   0  0  0  0  0  0  0  0  0  0  0  0
  -89.9661   25.5931    3.1343 C   0  0  0  0  0  0  0  0  0  0  0  0
  -90.6194   26.4432    2.2855 C   0  0  0  0  0  0  0  0  0  0  0  0
  -91.0693   26.0212    0.9315 C   0  0  0  0  0  0  0  0  0  0  0  0
 26 27  1  0  0  0
 27 28  2  0  0  0
 27  1  1  0  0  0
  1  2  2  0  0  0
  2  3  1  0  0  0
  3 31  1  0  0  0
 31 32  1  0  0  0
 32 33  2  0  0  0
 33 34  1  0  0  0
 34 35  2  0  0  0
 35 36  1  0  0  0
 36 37  2  0  0  0
 37 38  1  0  0  0
  3  4  2  0  0  0
  4  5  1  0  0  0
  5  6  2  0  0  0
  6  7  1  0  0  0
  7  8  2  0  0  0
  8  9  1  0  0  0
  9 10  2  0  0  0
 10 11  1  0  0  0
 11 12  1  0  0  0
 12 13  2  0  0  0
 12 14  1  0  0  0
 14 15  2  0  0  0
 15 16  1  0  0  0
 16 17  2  0  0  0
 17 18  1  0  0  0
 18 19  2  0  0  0
 17 20  1  0  0  0
 20 21  2  0  0  0
 21 22  1  0  0  0
 22 23  2  0  0  0
 23 24  1  0  0  0
 24 25  2  0  0  0
 11  1  1  0  0  0
 19 14  1  0  0  0
 25 20  1  0  0  0
 37 32  1  0  0  0
 10  5  1  0  0  0
 26 29  1  0  0  0
 26 30  1  0  0  0
M  END
> <minimizedAffinity>
-9.11260

> <CNNscore>
0.1771831363

> <CNNaffinity>
5.9767313004

> <CNN_VS>
1.0589760542

> <CNNaffinity_variance>
0.5171131492

$$$$
[H]C1=C(C(=O)N([H])[H])N(C(=O)c2c([H])c([H])c(-c3c([H])nc([H])c([H])c3[H])c([H])c2[H])c2c([H])c([H])c([H])c([H])c2N=C1Oc1c([H])c([H])c([H])c([H])c1C([H])([H])[H]


 38 42  0  0  0  0  0  0  0  0999 V2000
  -90.2779   30.7070   -3.4268 C   0  0  0  0  0  0  0  0  0  0  0  0
  -89.6933   30.0273   -2.4170 C   0  0  0  0  0  0  0  0  0  0  0  0
  -90.2261   29.0384   -1.4999 C   0  0  0  0  0  0  0  0  0  0  0  0
  -91.4384   28.5372   -1.4610 N   0  0  0  0  0  0  0  0  0  0  0  0
  -92.5279   28.8390   -2.3089 C   0  0  0  0  0  0  0  0  0  0  0  0
  -93.6208   28.0679   -1.9718 C   0  0  0  0  0  0  0  0  0  0  0  0
  -94.7934   28.1909   -2.6678 C   0  0  0  0  0  0  0  0  0  0  0  0
  -94.9091   29.0946   -3.7289 C   0  0  0  0  0  0  0  0  0  0  0  0
  -93.8271   29.8662   -4.0717 C   0  0  0  0  0  0  0  0  0  0  0  0
  -92.6454   29.7459   -3.3741 C   0  0  0  0  0  0  0  0  0  0  0  0
  -91.6305   30.6287   -3.8683 N   0  0  0  0  0  0  0  0  0  0  0  0
  -92.0543   31.4897   -4.8821 C   0  0  0  0  0  0  0  0  0  0  0  0
  -91.9539   31.1527   -6.1146 O   0  0  0  0  0  0  0  0  0  0  0  0
  -92.6362   32.8158   -4.6408 C   0  0  0  0  0  0  0  0  0  0  0  0
  -91.9380   33.9897   -4.7957 C   0  0  0  0  0  0  0  0  0  0  0  0
  -92.4733   35.2278   -4.5735 C   0  0  0  0  0  0  0  0  0  0  0  0
  -93.7936   35.3108   -4.1692 C   0  0  0  0  0  0  0  0  0  0  0  0
  -94.5423   34.1536   -3.9981 C   0  0  0  0  0  0  0  0  0  0  0  0
  -93.9493   32.9098   -4.2382 C   0  0  0  0  0  0  0  0  0  0  0  0
  -94.3481   36.6311   -3.9375 C   0  0  0  0  0  0  0  0  0  0  0  0
  -94.8699   36.9538   -2.7051 C   0  0  0  0  0  0  0  0  0  0  0  0
  -95.4094   38.2099   -2.4508 C   0  0  0  0  0  0  0  0  0  0  0  0
  -95.4091   39.1308   -3.4703 C   0  0  0  0  0  0  0  0  0  0  0  0
  -94.8959   38.8007   -4.6685 N   0  0  0  0  0  0  0  0  0  0  0  0
  -94.3668   37.5807   -4.9310 C   0  0  0  0  0  0  0  0  0  0  0  0
  -88.9965   31.4059   -5.4300 N   0  0  0  0  0  0  0  0  0  0  0  0
  -89.3580   31.5982   -4.0784 C   0  0  0  0  0  0  0  0  0  0  0  0
  -88.8417   32.5667   -3.4978 O   0  0  0  0  0  0  0  0  0  0  0  0
  -89.2953   32.0801   -6.1590 H   0  0  0  0  0  0  0  0  0  0  0  0
  -88.4265   30.5863   -5.7088 H   0  0  0  0  0  0  0  0  0  0  0  0
  -89.4437   28.4888   -0.5020 O   0  0  0  0  0  0  0  0  0  0  0  0
  -89.8262   28.3943    0.8405 C   0  0  0  0  0  0  0  0  0  0  0  0
  -90.9015   29.0460    1.3785 C   0  0  0  0  0  0  0  0  0  0  0  0
  -91.2525   28.9239    2.7280 C   0  0  0  0  0  0  0  0  0  0  0  0
  -90.5109   28.1287    3.5666 C   0  0  0  0  0  0  0  0  0  0  0  0
  -89.4340   27.4801    3.0109 C   0  0  0  0  0  0  0  0  0  0  0  0
  -89.0792   27.5902    1.6948 C   0  0  0  0  0  0  0  0  0  0  0  0
  -87.9057   26.8727    1.1273 C   0  0  0  0  0  0  0  0  0  0  0  0
 26 27  1  0  0  0
 27 28  2  0  0  0
 27  1  1  0  0  0
  1  2  2  0  0  0
  2  3  1  0  0  0
  3 31  1  0  0  0
 31 32  1  0  0  0
 32 33  2  0  0  0
 33 34  1  0  0  0
 34 35  2  0  0  0
 35 36  1  0  0  0
 36 37  2  0  0  0
 37 38  1  0  0  0
  3  4  2  0  0  0
  4  5  1  0  0  0
  5  6  2  0  0  0
  6  7  1  0  0  0
  7  8  2  0  0  0
  8  9  1  0  0  0
  9 10  2  0  0  0
 10 11  1  0  0  0
 11 12  1  0  0  0
 12 13  2  0  0  0
 12 14  1  0  0  0
 14 15  2  0  0  0
 15 16  1  0  0  0
 16 17  2  0  0  0
 17 18  1  0  0  0
 18 19  2  0  0  0
 17 20  1  0  0  0
 20 21  2  0  0  0
 21 22  1  0  0  0
 22 23  2  0  0  0
 23 24  1  0  0  0
 24 25  2  0  0  0
 11  1  1  0  0  0
 19 14  1  0  0  0
 25 20  1  0  0  0
 37 32  1  0  0  0
 10  5  1  0  0  0
 26 29  1  0  0  0
 26 30  1  0  0  0
M  END
> <minimizedAffinity>
-5.18814

> <CNNscore>
0.1758231968

> <CNNaffinity>
6.0067877769

> <CNN_VS>
1.0561326742

> <CNNaffinity_variance>
0.4892679155

$$$$
[H]c1c(F)c([H])c2nc(N3C([H])([H])C([H])([H])N4C([H])([H])C([H])([H])C3([H])C([H])([H])C4([H])[H])sc2c1[H]


 19 22  0  0  0  0  0  0  0  0999 V2000
  -82.1112   32.1756    0.3454 F   0  0  0  0  0  0  0  0  0  0  0  0
  -83.4614   32.2144    0.0852 C   0  0  0  0  0  0  0  0  0  0  0  0
  -84.2363   31.4116    0.8809 C   0  0  0  0  0  0  0  0  0  0  0  0
  -85.5994   31.4399    0.6306 C   0  0  0  0  0  0  0  0  0  0  0  0
  -86.1065   32.2616   -0.3913 C   0  0  0  0  0  0  0  0  0  0  0  0
  -87.6634   32.6004   -1.0281 S   0  0  0  0  0  0  0  0  0  0  0  0
  -87.2112   33.7210   -2.2391 C   0  0  0  0  0  0  0  0  0  0  0  0
  -85.9058   33.7767   -2.0945 N   0  0  0  0  0  0  0  0  0  0  0  0
  -85.3154   33.0549   -1.1736 C   0  0  0  0  0  0  0  0  0  0  0  0
  -83.9276   33.0135   -0.9045 C   0  0  0  0  0  0  0  0  0  0  0  0
  -88.0251   34.4343   -3.1861 N   0  0  0  0  0  0  0  0  0  0  0  0
  -89.2618   33.7556   -3.4800 C   0  0  0  0  0  0  0  0  0  0  0  0
  -90.3094   34.6308   -4.0821 C   0  0  0  0  0  0  0  0  0  0  0  0
  -89.8017   35.7199   -4.8544 N   0  0  0  0  0  0  0  0  0  0  0  0
  -88.7275   35.4107   -5.7228 C   0  0  0  0  0  0  0  0  0  0  0  0
  -87.3659   35.6692   -5.1804 C   0  0  0  0  0  0  0  0  0  0  0  0
  -87.4557   35.6724   -3.6517 C   0  0  0  0  0  0  0  0  0  0  0  0
  -88.3021   36.8775   -3.2929 C   0  0  0  0  0  0  0  0  0  0  0  0
  -89.6108   36.8638   -4.0149 C   0  0  0  0  0  0  0  0  0  0  0  0
  1  2  1  0  0  0
  2  3  2  0  0  0
  3  4  1  0  0  0
  4  5  2  0  0  0
  5  6  1  0  0  0
  6  7  1  0  0  0
  7  8  2  0  0  0
  8  9  1  0  0  0
  9 10  2  0  0  0
  7 11  1  0  0  0
 11 12  1  0  0  0
 12 13  1  0  0  0
 13 14  1  0  0  0
 14 15  1  0  0  0
 15 16  1  0  0  0
 16 17  1  0  0  0
 17 18  1  0  0  0
 18 19  1  0  0  0
 10  2  1  0  0  0
 17 11  1  0  0  0
  9  5  1  0  0  0
 19 14  1  0  0  0
M  END
> <minimizedAffinity>
-6.91970

> <CNNscore>
0.5562552810

> <CNNaffinity>
5.2708249092

> <CNN_VS>
2.9319241047

> <CNNaffinity_variance>
0.2850638330

$$$$
[H]c1c(F)c([H])c2nc(N3C([H])([H])C([H])([H])N4C([H])([H])C([H])([H])C3([H])C([H])([H])C4([H])[H])sc2c1[H]


 19 22  0  0  0  0  0  0  0  0999 V2000
  -81.8521   32.0679    0.8782 F   0  0  0  0  0  0  0  0  0  0  0  0
  -83.1870   32.0591    0.5460 C   0  0  0  0  0  0  0  0  0  0  0  0
  -83.9854   31.2806    1.3426 C   0  0  0  0  0  0  0  0  0  0  0  0
  -85.3335   31.2615    1.0202 C   0  0  0  0  0  0  0  0  0  0  0  0
  -85.8031   32.0148   -0.0700 C   0  0  0  0  0  0  0  0  0  0  0  0
  -87.3309   32.2802   -0.8048 S   0  0  0  0  0  0  0  0  0  0  0  0
  -86.8394   33.3459   -2.0497 C   0  0  0  0  0  0  0  0  0  0  0  0
  -85.5451   33.4418   -1.8402 N   0  0  0  0  0  0  0  0  0  0  0  0
  -84.9891   32.7850   -0.8518 C   0  0  0  0  0  0  0  0  0  0  0  0
  -83.6171   32.7926   -0.5087 C   0  0  0  0  0  0  0  0  0  0  0  0
  -87.6170   33.9874   -3.0752 N   0  0  0  0  0  0  0  0  0  0  0  0
  -86.9042   35.0562   -3.7278 C   0  0  0  0  0  0  0  0  0  0  0  0
  -87.4680   35.4448   -5.0534 C   0  0  0  0  0  0  0  0  0  0  0  0
  -88.8750   35.2363   -5.1847 N   0  0  0  0  0  0  0  0  0  0  0  0
  -89.6618   35.6302   -4.0759 C   0  0  0  0  0  0  0  0  0  0  0  0
  -89.9869   34.5531   -3.1016 C   0  0  0  0  0  0  0  0  0  0  0  0
  -88.9398   33.4457   -3.2503 C   0  0  0  0  0  0  0  0  0  0  0  0
  -89.1545   32.8607   -4.6321 C   0  0  0  0  0  0  0  0  0  0  0  0
  -89.1265   33.9194   -5.6868 C   0  0  0  0  0  0  0  0  0  0  0  0
  1  2  1  0  0  0
  2  3  2  0  0  0
  3  4  1  0  0  0
  4  5  2  0  0  0
  5  6  1  0  0  0
  6  7  1  0  0  0
  7  8  2  0  0  0
  8  9  1  0  0  0
  9 10  2  0  0  0
  7 11  1  0  0  0
 11 12  1  0  0  0
 12 13  1  0  0  0
 13 14  1  0  0  0
 14 15  1  0  0  0
 15 16  1  0  0  0
 16 17  1  0  0  0
 17 18  1  0  0  0
 18 19  1  0  0  0
 10  2  1  0  0  0
 17 11  1  0  0  0
  9  5  1  0  0  0
 19 14  1  0  0  0
M  END
> <minimizedAffinity>
-6.28202

> <CNNscore>
0.4448817074

> <CNNaffinity>
5.3819952011

> <CNN_VS>
2.3943512440

> <CNNaffinity_variance>
0.1256174296

$$$$
[H]c1c(F)c([H])c2nc(N3C([H])([H])C([H])([H])N4C([H])([H])C([H])([H])C3([H])C([H])([H])C4([H])[H])sc2c1[H]


 19 22  0  0  0  0  0  0  0  0999 V2000
  -83.3270   32.6165    0.0051 F   0  0  0  0  0  0  0  0  0  0  0  0
  -83.7313   31.4094    0.5267 C   0  0  0  0  0  0  0  0  0  0  0  0
  -82.7827   30.7348    1.2500 C   0  0  0  0  0  0  0  0  0  0  0  0
  -83.1753   29.5165    1.7821 C   0  0  0  0  0  0  0  0  0  0  0  0
  -84.4819   29.0457    1.5634 C   0  0  0  0  0  0  0  0  0  0  0  0
  -85.3688   27.6475    2.0138 S   0  0  0  0  0  0  0  0  0  0  0  0
  -86.8553   28.0270    1.2569 C   0  0  0  0  0  0  0  0  0  0  0  0
  -86.5979   29.1919    0.7046 N   0  0  0  0  0  0  0  0  0  0  0  0
  -85.4128   29.7350    0.8386 C   0  0  0  0  0  0  0  0  0  0  0  0
  -84.9951   30.9756    0.3031 C   0  0  0  0  0  0  0  0  0  0  0  0
  -88.0861   27.2845    1.2169 N   0  0  0  0  0  0  0  0  0  0  0  0
  -88.1958   26.4510    0.0465 C   0  0  0  0  0  0  0  0  0  0  0  0
  -89.2032   25.3573    0.1692 C   0  0  0  0  0  0  0  0  0  0  0  0
  -90.3001   25.6542    1.0346 N   0  0  0  0  0  0  0  0  0  0  0  0
  -90.8557   26.9494    0.9020 C   0  0  0  0  0  0  0  0  0  0  0  0
  -90.3362   27.9732    1.8492 C   0  0  0  0  0  0  0  0  0  0  0  0
  -88.9599   27.5134    2.3385 C   0  0  0  0  0  0  0  0  0  0  0  0
  -89.2112   26.2583    3.1503 C   0  0  0  0  0  0  0  0  0  0  0  0
  -89.9887   25.2470    2.3714 C   0  0  0  0  0  0  0  0  0  0  0  0
  1  2  1  0  0  0
  2  3  2  0  0  0
  3  4  1  0  0  0
  4  5  2  0  0  0
  5  6  1  0  0  0
  6  7  1  0  0  0
  7  8  2  0  0  0
  8  9  1  0  0  0
  9 10  2  0  0  0
  7 11  1  0  0  0
 11 12  1  0  0  0
 12 13  1  0  0  0
 13 14  1  0  0  0
 14 15  1  0  0  0
 15 16  1  0  0  0
 16 17  1  0  0  0
 17 18  1  0  0  0
 18 19  1  0  0  0
 10  2  1  0  0  0
 17 11  1  0  0  0
  9  5  1  0  0  0
 19 14  1  0  0  0
M  END
> <minimizedAffinity>
-7.58170

> <CNNscore>
0.4281400740

> <CNNaffinity>
5.6743478775

> <CNN_VS>
2.4294157028

> <CNNaffinity_variance>
0.1593985558

$$$$
[H]c1c(F)c([H])c2nc(N3C([H])([H])C([H])([H])N4C([H])([H])C([H])([H])C3([H])C([H])([H])C4([H])[H])sc2c1[H]


 19 22  0  0  0  0  0  0  0  0999 V2000
  -85.5692   28.3645    2.3672 F   0  0  0  0  0  0  0  0  0  0  0  0
  -85.5116   29.5618    1.6923 C   0  0  0  0  0  0  0  0  0  0  0  0
  -84.6250   30.4777    2.1954 C   0  0  0  0  0  0  0  0  0  0  0  0
  -84.5557   31.6895    1.5257 C   0  0  0  0  0  0  0  0  0  0  0  0
  -85.3688   31.9152    0.4012 C   0  0  0  0  0  0  0  0  0  0  0  0
  -85.6065   33.2143   -0.6944 S   0  0  0  0  0  0  0  0  0  0  0  0
  -86.7982   32.4989   -1.6918 C   0  0  0  0  0  0  0  0  0  0  0  0
  -86.9505   31.3155   -1.1399 N   0  0  0  0  0  0  0  0  0  0  0  0
  -86.2467   30.9875   -0.0842 C   0  0  0  0  0  0  0  0  0  0  0  0
  -86.3044   29.7573    0.6112 C   0  0  0  0  0  0  0  0  0  0  0  0
  -87.4770   33.0292   -2.8433 N   0  0  0  0  0  0  0  0  0  0  0  0
  -87.5198   32.0981   -3.9422 C   0  0  0  0  0  0  0  0  0  0  0  0
  -88.5638   32.4067   -4.9624 C   0  0  0  0  0  0  0  0  0  0  0  0
  -88.8798   33.7940   -5.0882 N   0  0  0  0  0  0  0  0  0  0  0  0
  -87.7749   34.6788   -5.0953 C   0  0  0  0  0  0  0  0  0  0  0  0
  -87.4211   35.2780   -3.7797 C   0  0  0  0  0  0  0  0  0  0  0  0
  -87.9764   34.3699   -2.6789 C   0  0  0  0  0  0  0  0  0  0  0  0
  -89.4850   34.4517   -2.8017 C   0  0  0  0  0  0  0  0  0  0  0  0
  -89.9408   34.1343   -4.1893 C   0  0  0  0  0  0  0  0  0  0  0  0
  1  2  1  0  0  0
  2  3  2  0  0  0
  3  4  1  0  0  0
  4  5  2  0  0  0
  5  6  1  0  0  0
  6  7  1  0  0  0
  7  8  2  0  0  0
  8  9  1  0  0  0
  9 10  2  0  0  0
  7 11  1  0  0  0
 11 12  1  0  0  0
 12 13  1  0  0  0
 13 14  1  0  0  0
 14 15  1  0  0  0
 15 16  1  0  0  0
 16 17  1  0  0  0
 17 18  1  0  0  0
 18 19  1  0  0  0
 10  2  1  0  0  0
 17 11  1  0  0  0
  9  5  1  0  0  0
 19 14  1  0  0  0
M  END
> <minimizedAffinity>
-6.88058

> <CNNscore>
0.3627479970

> <CNNaffinity>
5.2552466393

> <CNN_VS>
1.9063302279

> <CNNaffinity_variance>
0.1769798845

$$$$
[H]c1c(F)c([H])c2nc(N3C([H])([H])C([H])([H])N4C([H])([H])C([H])([H])C3([H])C([H])([H])C4([H])[H])sc2c1[H]


 19 22  0  0  0  0  0  0  0  0999 V2000
  -82.9139   33.0162   -0.1914 F   0  0  0  0  0  0  0  0  0  0  0  0
  -83.4181   31.8528    0.3423 C   0  0  0  0  0  0  0  0  0  0  0  0
  -82.5250   31.0997    1.0586 C   0  0  0  0  0  0  0  0  0  0  0  0
  -83.0185   29.9241    1.6028 C   0  0  0  0  0  0  0  0  0  0  0  0
  -84.3645   29.5710    1.4023 C   0  0  0  0  0  0  0  0  0  0  0  0
  -85.3673   28.2601    1.8716 S   0  0  0  0  0  0  0  0  0  0  0  0
  -86.8230   28.7674    1.1297 C   0  0  0  0  0  0  0  0  0  0  0  0
  -86.4693   29.9017    0.5673 N   0  0  0  0  0  0  0  0  0  0  0  0
  -85.2387   30.3372    0.6841 C   0  0  0  0  0  0  0  0  0  0  0  0
  -84.7183   31.5327    0.1362 C   0  0  0  0  0  0  0  0  0  0  0  0
  -88.1158   28.1378    1.1087 N   0  0  0  0  0  0  0  0  0  0  0  0
  -88.2995   27.2072    2.1934 C   0  0  0  0  0  0  0  0  0  0  0  0
  -89.7262   26.8757    2.4772 C   0  0  0  0  0  0  0  0  0  0  0  0
  -90.5901   26.9479    1.3419 N   0  0  0  0  0  0  0  0  0  0  0  0
  -90.0845   26.3826    0.1467 C   0  0  0  0  0  0  0  0  0  0  0  0
  -89.4209   27.3343   -0.7856 C   0  0  0  0  0  0  0  0  0  0  0  0
  -88.9660   28.5526    0.0229 C   0  0  0  0  0  0  0  0  0  0  0  0
  -90.2371   29.2267    0.4996 C   0  0  0  0  0  0  0  0  0  0  0  0
  -91.1279   28.2695    1.2236 C   0  0  0  0  0  0  0  0  0  0  0  0
  1  2  1  0  0  0
  2  3  2  0  0  0
  3  4  1  0  0  0
  4  5  2  0  0  0
  5  6  1  0  0  0
  6  7  1  0  0  0
  7  8  2  0  0  0
  8  9  1  0  0  0
  9 10  2  0  0  0
  7 11  1  0  0  0
 11 12  1  0  0  0
 12 13  1  0  0  0
 13 14  1  0  0  0
 14 15  1  0  0  0
 15 16  1  0  0  0
 16 17  1  0  0  0
 17 18  1  0  0  0
 18 19  1  0  0  0
 10  2  1  0  0  0
 17 11  1  0  0  0
  9  5  1  0  0  0
 19 14  1  0  0  0
M  END
> <minimizedAffinity>
-7.55482

> <CNNscore>
0.3383224010

> <CNNaffinity>
5.5583682060

> <CNN_VS>
1.8805204630

> <CNNaffinity_variance>
0.2377317846

$$$$
[H]c1c(F)c([H])c2nc(N3C([H])([H])C([H])([H])N4C([H])([H])C([H])([H])C3([H])C([H])([H])C4([H])[H])sc2c1[H]


 19 22  0  0  0  0  0  0  0  0999 V2000
  -83.6840   27.2802    2.8641 F   0  0  0  0  0  0  0  0  0  0  0  0
  -83.8448   28.4285    2.1239 C   0  0  0  0  0  0  0  0  0  0  0  0
  -82.7668   29.2746    2.1107 C   0  0  0  0  0  0  0  0  0  0  0  0
  -82.9137   30.4363    1.3688 C   0  0  0  0  0  0  0  0  0  0  0  0
  -84.1187   30.6845    0.6882 C   0  0  0  0  0  0  0  0  0  0  0  0
  -84.7210   31.9419   -0.3120 S   0  0  0  0  0  0  0  0  0  0  0  0
  -86.2748   31.3002   -0.6296 C   0  0  0  0  0  0  0  0  0  0  0  0
  -86.2517   30.1689    0.0396 N   0  0  0  0  0  0  0  0  0  0  0  0
  -85.1819   29.8267    0.7148 C   0  0  0  0  0  0  0  0  0  0  0  0
  -85.0146   28.6468    1.4764 C   0  0  0  0  0  0  0  0  0  0  0  0
  -87.3501   31.8359   -1.4200 N   0  0  0  0  0  0  0  0  0  0  0  0
  -88.6472   31.4191   -0.9507 C   0  0  0  0  0  0  0  0  0  0  0  0
  -89.7726   32.2727   -1.4311 C   0  0  0  0  0  0  0  0  0  0  0  0
  -89.5510   32.8888   -2.7006 N   0  0  0  0  0  0  0  0  0  0  0  0
  -88.9790   32.0601   -3.6955 C   0  0  0  0  0  0  0  0  0  0  0  0
  -87.4994   32.1452   -3.8322 C   0  0  0  0  0  0  0  0  0  0  0  0
  -86.9296   32.6741   -2.5129 C   0  0  0  0  0  0  0  0  0  0  0  0
  -87.4368   34.0970   -2.3880 C   0  0  0  0  0  0  0  0  0  0  0  0
  -88.9242   34.1632   -2.5197 C   0  0  0  0  0  0  0  0  0  0  0  0
  1  2  1  0  0  0
  2  3  2  0  0  0
  3  4  1  0  0  0
  4  5  2  0  0  0
  5  6  1  0  0  0
  6  7  1  0  0  0
  7  8  2  0  0  0
  8  9  1  0  0  0
  9 10  2  0  0  0
  7 11  1  0  0  0
 11 12  1  0  0  0
 12 13  1  0  0  0
 13 14  1  0  0  0
 14 15  1  0  0  0
 15 16  1  0  0  0
 16 17  1  0  0  0
 17 18  1  0  0  0
 18 19  1  0  0  0
 10  2  1  0  0  0
 17 11  1  0  0  0
  9  5  1  0  0  0
 19 14  1  0  0  0
M  END
> <minimizedAffinity>
-7.43465

> <CNNscore>
0.3071119189

> <CNNaffinity>
5.4434227943

> <CNN_VS>
1.6717400551

> <CNNaffinity_variance>
0.2557971179

$$$$
[H]c1c(F)c([H])c2nc(N3C([H])([H])C([H])([H])N4C([H])([H])C([H])([H])C3([H])C([H])([H])C4([H])[H])sc2c1[H]


 19 22  0  0  0  0  0  0  0  0999 V2000
  -81.7296   31.8759    0.5110 F   0  0  0  0  0  0  0  0  0  0  0  0
  -83.0785   31.7526    0.2709 C   0  0  0  0  0  0  0  0  0  0  0  0
  -83.6747   32.8436   -0.3055 C   0  0  0  0  0  0  0  0  0  0  0  0
  -85.0342   32.7344   -0.5536 C   0  0  0  0  0  0  0  0  0  0  0  0
  -85.7147   31.5517   -0.2149 C   0  0  0  0  0  0  0  0  0  0  0  0
  -87.3335   30.9955   -0.3354 S   0  0  0  0  0  0  0  0  0  0  0  0
  -87.1261   29.4407    0.3474 C   0  0  0  0  0  0  0  0  0  0  0  0
  -85.8420   29.4285    0.6292 N   0  0  0  0  0  0  0  0  0  0  0  0
  -85.1003   30.4748    0.3596 C   0  0  0  0  0  0  0  0  0  0  0  0
  -83.7136   30.6036    0.6056 C   0  0  0  0  0  0  0  0  0  0  0  0
  -88.0878   28.3949    0.5693 N   0  0  0  0  0  0  0  0  0  0  0  0
  -89.4217   28.7726    0.1763 C   0  0  0  0  0  0  0  0  0  0  0  0
  -90.3449   27.6196   -0.0339 C   0  0  0  0  0  0  0  0  0  0  0  0
  -90.0500   26.4699    0.7607 N   0  0  0  0  0  0  0  0  0  0  0  0
  -89.7302   26.7239    2.1160 C   0  0  0  0  0  0  0  0  0  0  0  0
  -88.2784   26.8291    2.4265 C   0  0  0  0  0  0  0  0  0  0  0  0
  -87.5405   27.1883    1.1336 C   0  0  0  0  0  0  0  0  0  0  0  0
  -87.7039   25.9890    0.2212 C   0  0  0  0  0  0  0  0  0  0  0  0
  -89.1416   25.6141    0.0592 C   0  0  0  0  0  0  0  0  0  0  0  0
  1  2  1  0  0  0
  2  3  2  0  0  0
  3  4  1  0  0  0
  4  5  2  0  0  0
  5  6  1  0  0  0
  6  7  1  0  0  0
  7  8  2  0  0  0
  8  9  1  0  0  0
  9 10  2  0  0  0
  7 11  1  0  0  0
 11 12  1  0  0  0
 12 13  1  0  0  0
 13 14  1  0  0  0
 14 15  1  0  0  0
 15 16  1  0  0  0
 16 17  1  0  0  0
 17 18  1  0  0  0
 18 19  1  0  0  0
 10  2  1  0  0  0
 17 11  1  0  0  0
  9  5  1  0  0  0
 19 14  1  0  0  0
M  END
> <minimizedAffinity>
-7.26254

> <CNNscore>
0.3048586249

> <CNNaffinity>
5.6357536316

> <CNN_VS>
1.7181080580

> <CNNaffinity_variance>
0.1018680334

$$$$
[H]c1c(F)c([H])c2nc(N3C([H])([H])C([H])([H])N4C([H])([H])C([H])([H])C3([H])C([H])([H])C4([H])[H])sc2c1[H]


 19 22  0  0  0  0  0  0  0  0999 V2000
  -81.7293   31.8409    0.8291 F   0  0  0  0  0  0  0  0  0  0  0  0
  -83.0567   31.6151    0.5476 C   0  0  0  0  0  0  0  0  0  0  0  0
  -83.7132   32.6531   -0.0604 C   0  0  0  0  0  0  0  0  0  0  0  0
  -85.0519   32.4405   -0.3505 C   0  0  0  0  0  0  0  0  0  0  0  0
  -85.6534   31.2135   -0.0197 C   0  0  0  0  0  0  0  0  0  0  0  0
  -87.2216   30.5370   -0.1854 S   0  0  0  0  0  0  0  0  0  0  0  0
  -86.9218   29.0085    0.5220 C   0  0  0  0  0  0  0  0  0  0  0  0
  -85.6503   29.0948    0.8448 N   0  0  0  0  0  0  0  0  0  0  0  0
  -84.9799   30.1909    0.5867 C   0  0  0  0  0  0  0  0  0  0  0  0
  -83.6154   30.4251    0.8754 C   0  0  0  0  0  0  0  0  0  0  0  0
  -87.8100   27.8960    0.7254 N   0  0  0  0  0  0  0  0  0  0  0  0
  -87.4737   27.1213    1.8929 C   0  0  0  0  0  0  0  0  0  0  0  0
  -88.5838   26.2589    2.3928 C   0  0  0  0  0  0  0  0  0  0  0  0
  -89.4920   25.8151    1.3836 N   0  0  0  0  0  0  0  0  0  0  0  0
  -88.9014   25.3680    0.1774 C   0  0  0  0  0  0  0  0  0  0  0  0
  -88.8027   26.3832   -0.9065 C   0  0  0  0  0  0  0  0  0  0  0  0
  -88.8500   27.7720   -0.2630 C   0  0  0  0  0  0  0  0  0  0  0  0
  -90.2390   27.9027    0.3294 C   0  0  0  0  0  0  0  0  0  0  0  0
  -90.5577   26.7602    1.2390 C   0  0  0  0  0  0  0  0  0  0  0  0
  1  2  1  0  0  0
  2  3  2  0  0  0
  3  4  1  0  0  0
  4  5  2  0  0  0
  5  6  1  0  0  0
  6  7  1  0  0  0
  7  8  2  0  0  0
  8  9  1  0  0  0
  9 10  2  0  0  0
  7 11  1  0  0  0
 11 12  1  0  0  0
 12 13  1  0  0  0
 13 14  1  0  0  0
 14 15  1  0  0  0
 15 16  1  0  0  0
 16 17  1  0  0  0
 17 18  1  0  0  0
 18 19  1  0  0  0
 10  2  1  0  0  0
 17 11  1  0  0  0
  9  5  1  0  0  0
 19 14  1  0  0  0
M  END
> <minimizedAffinity>
-7.17977

> <CNNscore>
0.2840656042

> <CNNaffinity>
5.5881872177

> <CNN_VS>
1.5874117613

> <CNNaffinity_variance>
0.1627350748

$$$$
[H]c1c(F)c([H])c2nc(N3C([H])([H])C([H])([H])N4C([H])([H])C([H])([H])C3([H])C([H])([H])C4([H])[H])sc2c1[H]


 19 22  0  0  0  0  0  0  0  0999 V2000
  -83.4951   27.2642    2.9029 F   0  0  0  0  0  0  0  0  0  0  0  0
  -83.8116   28.3882    2.1755 C   0  0  0  0  0  0  0  0  0  0  0  0
  -82.8547   29.3691    2.1639 C   0  0  0  0  0  0  0  0  0  0  0  0
  -83.1592   30.5081    1.4349 C   0  0  0  0  0  0  0  0  0  0  0  0
  -84.3915   30.6015    0.7647 C   0  0  0  0  0  0  0  0  0  0  0  0
  -85.1621   31.7778   -0.2187 S   0  0  0  0  0  0  0  0  0  0  0  0
  -86.6202   30.9398   -0.5328 C   0  0  0  0  0  0  0  0  0  0  0  0
  -86.4430   29.8152    0.1246 N   0  0  0  0  0  0  0  0  0  0  0  0
  -85.3322   29.6108    0.7894 C   0  0  0  0  0  0  0  0  0  0  0  0
  -85.0050   28.4562    1.5378 C   0  0  0  0  0  0  0  0  0  0  0  0
  -87.7628   31.3363   -1.3107 N   0  0  0  0  0  0  0  0  0  0  0  0
  -88.2290   32.6592   -0.9807 C   0  0  0  0  0  0  0  0  0  0  0  0
  -89.0931   33.2796   -2.0269 C   0  0  0  0  0  0  0  0  0  0  0  0
  -89.8441   32.3477   -2.8066 N   0  0  0  0  0  0  0  0  0  0  0  0
  -90.4610   31.2977   -2.0851 C   0  0  0  0  0  0  0  0  0  0  0  0
  -89.6921   30.0254   -2.0154 C   0  0  0  0  0  0  0  0  0  0  0  0
  -88.2148   30.3488   -2.2564 C   0  0  0  0  0  0  0  0  0  0  0  0
  -88.1290   30.8301   -3.6912 C   0  0  0  0  0  0  0  0  0  0  0  0
  -89.0843   31.9494   -3.9529 C   0  0  0  0  0  0  0  0  0  0  0  0
  1  2  1  0  0  0
  2  3  2  0  0  0
  3  4  1  0  0  0
  4  5  2  0  0  0
  5  6  1  0  0  0
  6  7  1  0  0  0
  7  8  2  0  0  0
  8  9  1  0  0  0
  9 10  2  0  0  0
  7 11  1  0  0  0
 11 12  1  0  0  0
 12 13  1  0  0  0
 13 14  1  0  0  0
 14 15  1  0  0  0
 15 16  1  0  0  0
 16 17  1  0  0  0
 17 18  1  0  0  0
 18 19  1  0  0  0
 10  2  1  0  0  0
 17 11  1  0  0  0
  9  5  1  0  0  0
 19 14  1  0  0  0
M  END
> <minimizedAffinity>
-7.54995

> <CNNscore>
0.1842158884

> <CNNaffinity>
5.3404936790

> <CNN_VS>
0.9838038087

> <CNNaffinity_variance>
0.2336780578

$$$$
[H]OC(=O)C([H])([H])[C@@]([H])(C(=O)O[H])N([H])C(=O)[C@@]([H])(N([H])C(=O)[C@@]([H])(N([H])C(=O)[C@@]1([H])N(C(=O)[C@@]([H])(N([H])[H])C([H])([H])c2c([H])c([H])c([H])c([H])c2[H])C([H])([H])C([H])([H])C1([H])[H])C([H])([H])c1c([H])c([H])c([H])c([H])c1[H])C([H])(C([H])([H])[H])C([H])([H])[H]


 52 54  0  0  0  0  0  0  0  0999 V2000
  -87.0556   32.2881   -0.6864 C   0  0  0  0  0  0  0  0  0  0  0  0
  -87.9382   33.6378   -2.7290 N   0  0  0  0  0  0  0  0  0  0  0  0
  -87.9871   32.9953   -1.5093 C   0  0  0  0  0  0  0  0  0  0  0  0
  -89.2061   33.0386   -0.9657 O   0  0  0  0  0  0  0  0  0  0  0  0
  -87.0973   33.6676   -3.3212 H   0  0  0  0  0  0  0  0  0  0  0  0
  -89.1020   34.3187   -3.3332 C   0  0  0  0  0  0  0  0  0  0  0  0
  -89.9735   33.3576   -4.0049 C   0  0  0  0  0  0  0  0  0  0  0  0
  -89.7377   33.1535   -5.2688 O   0  0  0  0  0  0  0  0  0  0  0  0
  -91.0346   32.6111   -3.4812 N   0  0  0  0  0  0  0  0  0  0  0  0
  -91.3672   32.6511   -2.5148 H   0  0  0  0  0  0  0  0  0  0  0  0
  -91.7696   31.6632   -4.3548 C   0  0  0  0  0  0  0  0  0  0  0  0
  -93.0913   32.2513   -4.6549 C   0  0  0  0  0  0  0  0  0  0  0  0
  -93.7921   32.8876   -3.6599 O   0  0  0  0  0  0  0  0  0  0  0  0
  -93.5708   32.1713   -5.7986 O   0  0  0  0  0  0  0  0  0  0  0  0
  -94.7236   33.2234   -3.7626 H   0  0  0  0  0  0  0  0  0  0  0  0
  -91.8863   30.3423   -3.6474 C   0  0  0  0  0  0  0  0  0  0  0  0
  -92.1358   29.1922   -4.5154 C   0  0  0  0  0  0  0  0  0  0  0  0
  -92.0930   29.3613   -5.9054 O   0  0  0  0  0  0  0  0  0  0  0  0
  -92.3939   28.0373   -4.0776 O   0  0  0  0  0  0  0  0  0  0  0  0
  -91.1916   29.1646   -6.3401 H   0  0  0  0  0  0  0  0  0  0  0  0
  -89.5350   36.7538   -3.7322 C   0  0  0  0  0  0  0  0  0  0  0  0
  -88.6978   35.5437   -4.0400 C   0  0  0  0  0  0  0  0  0  0  0  0
  -87.2298   35.8082   -4.0193 C   0  0  0  0  0  0  0  0  0  0  0  0
  -86.8371   30.9047   -1.1265 N   0  0  0  0  0  0  0  0  0  0  0  0
  -87.5514   29.7857   -0.5825 C   0  0  0  0  0  0  0  0  0  0  0  0
  -88.3903   30.0322    0.2959 O   0  0  0  0  0  0  0  0  0  0  0  0
  -86.1412   30.7239   -1.8601 H   0  0  0  0  0  0  0  0  0  0  0  0
  -87.3036   28.4239   -1.0375 C   0  0  0  0  0  0  0  0  0  0  0  0
  -87.3643   28.3597   -2.5848 C   0  0  0  0  0  0  0  0  0  0  0  0
  -88.8818   28.3807   -2.7831 C   0  0  0  0  0  0  0  0  0  0  0  0
  -89.4718   27.7861   -1.5152 C   0  0  0  0  0  0  0  0  0  0  0  0
  -88.3057   27.4430   -0.7401 N   0  0  0  0  0  0  0  0  0  0  0  0
  -88.2188   26.3177    0.1231 C   0  0  0  0  0  0  0  0  0  0  0  0
  -87.1577   26.1404    0.7637 O   0  0  0  0  0  0  0  0  0  0  0  0
  -89.3182   25.3438    0.2921 C   0  0  0  0  0  0  0  0  0  0  0  0
  -88.8715   24.0539   -0.2660 N   0  0  0  0  0  0  0  0  0  0  0  0
  -89.1364   23.9578   -1.2671 H   0  0  0  0  0  0  0  0  0  0  0  0
  -87.8231   24.0120   -0.2455 H   0  0  0  0  0  0  0  0  0  0  0  0
  -89.7154   25.1288    1.7522 C   0  0  0  0  0  0  0  0  0  0  0  0
  -90.1480   26.4060    2.3286 C   0  0  0  0  0  0  0  0  0  0  0  0
  -90.8796   27.2983    1.5988 C   0  0  0  0  0  0  0  0  0  0  0  0
  -91.2727   28.4974    2.1922 C   0  0  0  0  0  0  0  0  0  0  0  0
  -90.9313   28.7802    3.4925 C   0  0  0  0  0  0  0  0  0  0  0  0
  -90.1860   27.8726    4.2399 C   0  0  0  0  0  0  0  0  0  0  0  0
  -89.8115   26.7081    3.6429 C   0  0  0  0  0  0  0  0  0  0  0  0
  -85.8152   32.8746   -0.2167 C   0  0  0  0  0  0  0  0  0  0  0  0
  -84.8554   31.9638    0.4038 C   0  0  0  0  0  0  0  0  0  0  0  0
  -83.6007   31.8808   -0.2145 C   0  0  0  0  0  0  0  0  0  0  0  0
  -82.6500   31.0957    0.3599 C   0  0  0  0  0  0  0  0  0  0  0  0
  -82.9246   30.4081    1.5141 C   0  0  0  0  0  0  0  0  0  0  0  0
  -84.1750   30.4967    2.1231 C   0  0  0  0  0  0  0  0  0  0  0  0
  -85.1327   31.2870    1.5450 C   0  0  0  0  0  0  0  0  0  0  0  0
 21 22  1  0  0  0
 22 23  1  0  0  0
 22  6  1  0  0  0
  6  2  1  0  0  0
  2  3  1  0  0  0
  3  4  2  0  0  0
  3  1  1  0  0  0
  1 46  1  0  0  0
 46 47  1  0  0  0
 47 48  2  0  0  0
 48 49  1  0  0  0
 49 50  2  0  0  0
 50 51  1  0  0  0
 51 52  2  0  0  0
  1 24  1  0  0  0
 24 25  1  0  0  0
 25 26  2  0  0  0
 25 28  1  0  0  0
 28 29  1  0  0  0
 29 30  1  0  0  0
 30 31  1  0  0  0
 31 32  1  0  0  0
 32 33  1  0  0  0
 33 34  2  0  0  0
 33 35  1  0  0  0
 35 36  1  0  0  0
 35 39  1  0  0  0
 39 40  1  0  0  0
 40 41  2  0  0  0
 41 42  1  0  0  0
 42 43  2  0  0  0
 43 44  1  0  0  0
 44 45  2  0  0  0
  6  7  1  0  0  0
  7  8  2  0  0  0
  7  9  1  0  0  0
  9 11  1  0  0  0
 11 16  1  0  0  0
 16 17  1  0  0  0
 17 18  1  0  0  0
 17 19  2  0  0  0
 11 12  1  0  0  0
 12 13  1  0  0  0
 12 14  2  0  0  0
 52 47  1  0  0  0
 32 28  1  0  0  0
 45 40  1  0  0  0
  2  5  1  0  0  0
 24 27  1  0  0  0
 36 37  1  0  0  0
 36 38  1  0  0  0
  9 10  1  0  0  0
 18 20  1  0  0  0
 13 15  1  0  0  0
M  END
> <minimizedAffinity>
-9.16135

> <CNNscore>
0.2817254663

> <CNNaffinity>
6.9585351944

> <CNN_VS>
1.9603965282

> <CNNaffinity_variance>
0.4683476388

$$$$
[H]OC(=O)C([H])([H])[C@@]([H])(C(=O)O[H])N([H])C(=O)[C@@]([H])(N([H])C(=O)[C@@]([H])(N([H])C(=O)[C@@]1([H])N(C(=O)[C@@]([H])(N([H])[H])C([H])([H])c2c([H])c([H])c([H])c([H])c2[H])C([H])([H])C([H])([H])C1([H])[H])C([H])([H])c1c([H])c([H])c([H])c([H])c1[H])C([H])(C([H])([H])[H])C([H])([H])[H]


 52 54  0  0  0  0  0  0  0  0999 V2000
  -86.6375   28.3814    0.3842 C   0  0  0  0  0  0  0  0  0  0  0  0
  -89.0937   27.5400    0.5622 N   0  0  0  0  0  0  0  0  0  0  0  0
  -87.8397   27.9122    1.0001 C   0  0  0  0  0  0  0  0  0  0  0  0
  -87.7151   27.8006    2.3251 O   0  0  0  0  0  0  0  0  0  0  0  0
  -89.3629   27.5123   -0.4305 H   0  0  0  0  0  0  0  0  0  0  0  0
  -90.1728   27.1030    1.4720 C   0  0  0  0  0  0  0  0  0  0  0  0
  -90.6527   25.7727    1.1056 C   0  0  0  0  0  0  0  0  0  0  0  0
  -91.7323   25.7310    0.3793 O   0  0  0  0  0  0  0  0  0  0  0  0
  -90.1124   24.5212    1.4204 N   0  0  0  0  0  0  0  0  0  0  0  0
  -89.2770   24.3622    1.9887 H   0  0  0  0  0  0  0  0  0  0  0  0
  -90.7620   23.2890    0.9088 C   0  0  0  0  0  0  0  0  0  0  0  0
  -90.9869   22.3833    2.0541 C   0  0  0  0  0  0  0  0  0  0  0  0
  -91.2247   21.0498    1.8277 O   0  0  0  0  0  0  0  0  0  0  0  0
  -90.9641   22.8213    3.2169 O   0  0  0  0  0  0  0  0  0  0  0  0
  -91.4768   20.4008    2.5391 H   0  0  0  0  0  0  0  0  0  0  0  0
  -89.8751   22.6706   -0.1351 C   0  0  0  0  0  0  0  0  0  0  0  0
  -90.0496   23.1947   -1.4890 C   0  0  0  0  0  0  0  0  0  0  0  0
  -89.0850   24.0628   -2.0168 O   0  0  0  0  0  0  0  0  0  0  0  0
  -91.0364   22.9074   -2.2209 O   0  0  0  0  0  0  0  0  0  0  0  0
  -88.3501   23.6154   -2.5645 H   0  0  0  0  0  0  0  0  0  0  0  0
  -91.1580   28.7240    3.1087 C   0  0  0  0  0  0  0  0  0  0  0  0
  -91.1448   28.1819    1.7064 C   0  0  0  0  0  0  0  0  0  0  0  0
  -91.1540   29.2392    0.6540 C   0  0  0  0  0  0  0  0  0  0  0  0
  -86.8258   29.6314   -0.3623 N   0  0  0  0  0  0  0  0  0  0  0  0
  -87.4456   29.6882   -1.6550 C   0  0  0  0  0  0  0  0  0  0  0  0
  -87.8347   28.6140   -2.1353 O   0  0  0  0  0  0  0  0  0  0  0  0
  -86.5012   30.5109    0.0575 H   0  0  0  0  0  0  0  0  0  0  0  0
  -87.6096   30.9462   -2.3715 C   0  0  0  0  0  0  0  0  0  0  0  0
  -87.4391   32.1401   -1.3981 C   0  0  0  0  0  0  0  0  0  0  0  0
  -88.8047   32.1052   -0.7079 C   0  0  0  0  0  0  0  0  0  0  0  0
  -89.7582   31.4783   -1.7112 C   0  0  0  0  0  0  0  0  0  0  0  0
  -88.9210   31.2522   -2.8628 N   0  0  0  0  0  0  0  0  0  0  0  0
  -89.3647   31.3507   -4.2091 C   0  0  0  0  0  0  0  0  0  0  0  0
  -88.5461   31.1053   -5.1242 O   0  0  0  0  0  0  0  0  0  0  0  0
  -90.7430   31.7374   -4.5779 C   0  0  0  0  0  0  0  0  0  0  0  0
  -90.6711   32.5694   -5.7934 N   0  0  0  0  0  0  0  0  0  0  0  0
  -90.6058   33.5810   -5.5614 H   0  0  0  0  0  0  0  0  0  0  0  0
  -89.7907   32.3418   -6.3173 H   0  0  0  0  0  0  0  0  0  0  0  0
  -91.6505   30.5408   -4.8624 C   0  0  0  0  0  0  0  0  0  0  0  0
  -92.7785   30.5561   -3.9254 C   0  0  0  0  0  0  0  0  0  0  0  0
  -93.7919   31.4616   -4.0552 C   0  0  0  0  0  0  0  0  0  0  0  0
  -94.8462   31.4333   -3.1429 C   0  0  0  0  0  0  0  0  0  0  0  0
  -94.8687   30.5085   -2.1272 C   0  0  0  0  0  0  0  0  0  0  0  0
  -93.8375   29.5832   -1.9922 C   0  0  0  0  0  0  0  0  0  0  0  0
  -92.8173   29.6273   -2.8922 C   0  0  0  0  0  0  0  0  0  0  0  0
  -85.3537   28.3801    1.0589 C   0  0  0  0  0  0  0  0  0  0  0  0
  -84.7021   29.6774    1.2263 C   0  0  0  0  0  0  0  0  0  0  0  0
  -85.1058   30.4275    2.3390 C   0  0  0  0  0  0  0  0  0  0  0  0
  -84.4846   31.6141    2.5759 C   0  0  0  0  0  0  0  0  0  0  0  0
  -83.4905   32.0542    1.7401 C   0  0  0  0  0  0  0  0  0  0  0  0
  -83.0945   31.3017    0.6360 C   0  0  0  0  0  0  0  0  0  0  0  0
  -83.7198   30.1068    0.3969 C   0  0  0  0  0  0  0  0  0  0  0  0
 21 22  1  0  0  0
 22 23  1  0  0  0
 22  6  1  0  0  0
  6  2  1  0  0  0
  2  3  1  0  0  0
  3  4  2  0  0  0
  3  1  1  0  0  0
  1 46  1  0  0  0
 46 47  1  0  0  0
 47 48  2  0  0  0
 48 49  1  0  0  0
 49 50  2  0  0  0
 50 51  1  0  0  0
 51 52  2  0  0  0
  1 24  1  0  0  0
 24 25  1  0  0  0
 25 26  2  0  0  0
 25 28  1  0  0  0
 28 29  1  0  0  0
 29 30  1  0  0  0
 30 31  1  0  0  0
 31 32  1  0  0  0
 32 33  1  0  0  0
 33 34  2  0  0  0
 33 35  1  0  0  0
 35 36  1  0  0  0
 35 39  1  0  0  0
 39 40  1  0  0  0
 40 41  2  0  0  0
 41 42  1  0  0  0
 42 43  2  0  0  0
 43 44  1  0  0  0
 44 45  2  0  0  0
  6  7  1  0  0  0
  7  8  2  0  0  0
  7  9  1  0  0  0
  9 11  1  0  0  0
 11 16  1  0  0  0
 16 17  1  0  0  0
 17 18  1  0  0  0
 17 19  2  0  0  0
 11 12  1  0  0  0
 12 13  1  0  0  0
 12 14  2  0  0  0
 52 47  1  0  0  0
 32 28  1  0  0  0
 45 40  1  0  0  0
  2  5  1  0  0  0
 24 27  1  0  0  0
 36 37  1  0  0  0
 36 38  1  0  0  0
  9 10  1  0  0  0
 18 20  1  0  0  0
 13 15  1  0  0  0
M  END
> <minimizedAffinity>
-8.76417

> <CNNscore>
0.2073579133

> <CNNaffinity>
6.7774200439

> <CNN_VS>
1.4053516388

> <CNNaffinity_variance>
0.2671260834

$$$$
[H]OC(=O)C([H])([H])[C@@]([H])(C(=O)O[H])N([H])C(=O)[C@@]([H])(N([H])C(=O)[C@@]([H])(N([H])C(=O)[C@@]1([H])N(C(=O)[C@@]([H])(N([H])[H])C([H])([H])c2c([H])c([H])c([H])c([H])c2[H])C([H])([H])C([H])([H])C1([H])[H])C([H])([H])c1c([H])c([H])c([H])c([H])c1[H])C([H])(C([H])([H])[H])C([H])([H])[H]


 52 54  0  0  0  0  0  0  0  0999 V2000
  -87.0595   27.7652    0.9498 C   0  0  0  0  0  0  0  0  0  0  0  0
  -89.2413   26.8132    2.0012 N   0  0  0  0  0  0  0  0  0  0  0  0
  -87.8850   26.9895    1.8225 C   0  0  0  0  0  0  0  0  0  0  0  0
  -87.1649   26.2482    2.6683 O   0  0  0  0  0  0  0  0  0  0  0  0
  -89.9545   27.2623    1.4110 H   0  0  0  0  0  0  0  0  0  0  0  0
  -89.8137   25.9277    3.0364 C   0  0  0  0  0  0  0  0  0  0  0  0
  -90.4465   24.7601    2.4276 C   0  0  0  0  0  0  0  0  0  0  0  0
  -91.4307   24.2275    3.0928 O   0  0  0  0  0  0  0  0  0  0  0  0
  -90.1495   24.1254    1.2166 N   0  0  0  0  0  0  0  0  0  0  0  0
  -89.4043   24.3985    0.5715 H   0  0  0  0  0  0  0  0  0  0  0  0
  -90.9545   22.9575    0.7807 C   0  0  0  0  0  0  0  0  0  0  0  0
  -90.0288   21.9457    0.2312 C   0  0  0  0  0  0  0  0  0  0  0  0
  -88.7814   22.3290   -0.1965 O   0  0  0  0  0  0  0  0  0  0  0  0
  -90.3733   20.7542    0.1525 O   0  0  0  0  0  0  0  0  0  0  0  0
  -88.1425   21.7242   -0.6621 H   0  0  0  0  0  0  0  0  0  0  0  0
  -91.9610   23.4148   -0.2373 C   0  0  0  0  0  0  0  0  0  0  0  0
  -93.3512   23.0797    0.0687 C   0  0  0  0  0  0  0  0  0  0  0  0
  -94.2518   22.8672   -0.9831 O   0  0  0  0  0  0  0  0  0  0  0  0
  -93.7944   22.9713    1.2450 O   0  0  0  0  0  0  0  0  0  0  0  0
  -94.3551   21.8964   -1.2780 H   0  0  0  0  0  0  0  0  0  0  0  0
  -89.9721   26.6136    5.4408 C   0  0  0  0  0  0  0  0  0  0  0  0
  -90.5459   26.6975    4.0538 C   0  0  0  0  0  0  0  0  0  0  0  0
  -90.9036   28.0838    3.6349 C   0  0  0  0  0  0  0  0  0  0  0  0
  -87.6598   29.0556    0.5895 N   0  0  0  0  0  0  0  0  0  0  0  0
  -87.6768   29.5666   -0.7510 C   0  0  0  0  0  0  0  0  0  0  0  0
  -87.1564   28.8587   -1.6251 O   0  0  0  0  0  0  0  0  0  0  0  0
  -88.0911   29.6232    1.3291 H   0  0  0  0  0  0  0  0  0  0  0  0
  -88.2749   30.8558   -1.0720 C   0  0  0  0  0  0  0  0  0  0  0  0
  -89.7052   30.9416   -0.4814 C   0  0  0  0  0  0  0  0  0  0  0  0
  -90.4581   30.0927   -1.5086 C   0  0  0  0  0  0  0  0  0  0  0  0
  -89.6644   30.2067   -2.7993 C   0  0  0  0  0  0  0  0  0  0  0  0
  -88.5927   31.1044   -2.4475 N   0  0  0  0  0  0  0  0  0  0  0  0
  -88.0156   32.0518   -3.3354 C   0  0  0  0  0  0  0  0  0  0  0  0
  -87.0707   32.7593   -2.9177 O   0  0  0  0  0  0  0  0  0  0  0  0
  -88.4847   32.2462   -4.7238 C   0  0  0  0  0  0  0  0  0  0  0  0
  -88.5552   30.9217   -5.3686 N   0  0  0  0  0  0  0  0  0  0  0  0
  -87.6677   30.6861   -5.8567 H   0  0  0  0  0  0  0  0  0  0  0  0
  -88.6776   30.1841   -4.6322 H   0  0  0  0  0  0  0  0  0  0  0  0
  -89.8631   32.9011   -4.8096 C   0  0  0  0  0  0  0  0  0  0  0  0
  -89.7032   34.3577   -4.8696 C   0  0  0  0  0  0  0  0  0  0  0  0
  -89.8715   35.1328   -3.7584 C   0  0  0  0  0  0  0  0  0  0  0  0
  -89.7034   36.5130   -3.8638 C   0  0  0  0  0  0  0  0  0  0  0  0
  -89.3724   37.0883   -5.0667 C   0  0  0  0  0  0  0  0  0  0  0  0
  -89.1994   36.3011   -6.2016 C   0  0  0  0  0  0  0  0  0  0  0  0
  -89.3683   34.9561   -6.0785 C   0  0  0  0  0  0  0  0  0  0  0  0
  -85.6280   27.9042    1.1359 C   0  0  0  0  0  0  0  0  0  0  0  0
  -85.1444   29.2287    1.5203 C   0  0  0  0  0  0  0  0  0  0  0  0
  -85.4556   29.6411    2.8228 C   0  0  0  0  0  0  0  0  0  0  0  0
  -84.9746   30.8389    3.2516 C   0  0  0  0  0  0  0  0  0  0  0  0
  -84.2065   31.6140    2.4212 C   0  0  0  0  0  0  0  0  0  0  0  0
  -83.9010   31.1961    1.1272 C   0  0  0  0  0  0  0  0  0  0  0  0
  -84.3851   29.9901    0.6949 C   0  0  0  0  0  0  0  0  0  0  0  0
 21 22  1  0  0  0
 22 23  1  0  0  0
 22  6  1  0  0  0
  6  2  1  0  0  0
  2  3  1  0  0  0
  3  4  2  0  0  0
  3  1  1  0  0  0
  1 46  1  0  0  0
 46 47  1  0  0  0
 47 48  2  0  0  0
 48 49  1  0  0  0
 49 50  2  0  0  0
 50 51  1  0  0  0
 51 52  2  0  0  0
  1 24  1  0  0  0
 24 25  1  0  0  0
 25 26  2  0  0  0
 25 28  1  0  0  0
 28 29  1  0  0  0
 29 30  1  0  0  0
 30 31  1  0  0  0
 31 32  1  0  0  0
 32 33  1  0  0  0
 33 34  2  0  0  0
 33 35  1  0  0  0
 35 36  1  0  0  0
 35 39  1  0  0  0
 39 40  1  0  0  0
 40 41  2  0  0  0
 41 42  1  0  0  0
 42 43  2  0  0  0
 43 44  1  0  0  0
 44 45  2  0  0  0
  6  7  1  0  0  0
  7  8  2  0  0  0
  7  9  1  0  0  0
  9 11  1  0  0  0
 11 16  1  0  0  0
 16 17  1  0  0  0
 17 18  1  0  0  0
 17 19  2  0  0  0
 11 12  1  0  0  0
 12 13  1  0  0  0
 12 14  2  0  0  0
 52 47  1  0  0  0
 32 28  1  0  0  0
 45 40  1  0  0  0
  2  5  1  0  0  0
 24 27  1  0  0  0
 36 37  1  0  0  0
 36 38  1  0  0  0
  9 10  1  0  0  0
 18 20  1  0  0  0
 13 15  1  0  0  0
M  END
> <minimizedAffinity>
-9.60108

> <CNNscore>
0.1996550113

> <CNNaffinity>
6.7685470581

> <CNN_VS>
1.3513743877

> <CNNaffinity_variance>
0.1669607908

$$$$
[H]OC(=O)C([H])([H])[C@@]([H])(C(=O)O[H])N([H])C(=O)[C@@]([H])(N([H])C(=O)[C@@]([H])(N([H])C(=O)[C@@]1([H])N(C(=O)[C@@]([H])(N([H])[H])C([H])([H])c2c([H])c([H])c([H])c([H])c2[H])C([H])([H])C([H])([H])C1([H])[H])C([H])([H])c1c([H])c([H])c([H])c([H])c1[H])C([H])(C([H])([H])[H])C([H])([H])[H]


 52 54  0  0  0  0  0  0  0  0999 V2000
  -86.4048   27.9944    0.8417 C   0  0  0  0  0  0  0  0  0  0  0  0
  -88.8373   27.0697    0.8210 N   0  0  0  0  0  0  0  0  0  0  0  0
  -87.5967   27.3797    1.3382 C   0  0  0  0  0  0  0  0  0  0  0  0
  -87.4763   27.0084    2.6153 O   0  0  0  0  0  0  0  0  0  0  0  0
  -89.1003   27.2342   -0.1601 H   0  0  0  0  0  0  0  0  0  0  0  0
  -89.9087   26.4310    1.6131 C   0  0  0  0  0  0  0  0  0  0  0  0
  -90.2988   25.1532    1.0219 C   0  0  0  0  0  0  0  0  0  0  0  0
  -89.9039   24.9410   -0.2003 O   0  0  0  0  0  0  0  0  0  0  0  0
  -91.0396   24.1088    1.5855 N   0  0  0  0  0  0  0  0  0  0  0  0
  -91.4387   24.1061    2.5273 H   0  0  0  0  0  0  0  0  0  0  0  0
  -91.2927   22.8770    0.7978 C   0  0  0  0  0  0  0  0  0  0  0  0
  -92.7160   22.5158    0.9614 C   0  0  0  0  0  0  0  0  0  0  0  0
  -93.1058   21.2082    0.8069 O   0  0  0  0  0  0  0  0  0  0  0  0
  -93.5590   23.3870    1.2350 O   0  0  0  0  0  0  0  0  0  0  0  0
  -94.0544   20.9063    0.8089 H   0  0  0  0  0  0  0  0  0  0  0  0
  -90.3746   21.7918    1.2858 C   0  0  0  0  0  0  0  0  0  0  0  0
  -90.4741   21.4884    2.7128 C   0  0  0  0  0  0  0  0  0  0  0  0
  -91.1622   20.3388    3.1221 O   0  0  0  0  0  0  0  0  0  0  0  0
  -89.9695   22.2154    3.6121 O   0  0  0  0  0  0  0  0  0  0  0  0
  -90.5841   19.5085    3.2512 H   0  0  0  0  0  0  0  0  0  0  0  0
  -90.8582   27.9101    3.3984 C   0  0  0  0  0  0  0  0  0  0  0  0
  -90.9491   27.4014    1.9866 C   0  0  0  0  0  0  0  0  0  0  0  0
  -91.1794   28.4740    0.9757 C   0  0  0  0  0  0  0  0  0  0  0  0
  -86.6694   29.2033    0.0520 N   0  0  0  0  0  0  0  0  0  0  0  0
  -87.1468   29.1688   -1.3005 C   0  0  0  0  0  0  0  0  0  0  0  0
  -87.3402   28.0493   -1.7960 O   0  0  0  0  0  0  0  0  0  0  0  0
  -86.5079   30.1209    0.4846 H   0  0  0  0  0  0  0  0  0  0  0  0
  -87.3916   30.3891   -2.0581 C   0  0  0  0  0  0  0  0  0  0  0  0
  -87.0726   31.6304   -1.1866 C   0  0  0  0  0  0  0  0  0  0  0  0
  -88.3302   31.6616   -0.3148 C   0  0  0  0  0  0  0  0  0  0  0  0
  -89.4213   31.0009   -1.1406 C   0  0  0  0  0  0  0  0  0  0  0  0
  -88.7541   30.6951   -2.3815 N   0  0  0  0  0  0  0  0  0  0  0  0
  -89.3781   30.7294   -3.6576 C   0  0  0  0  0  0  0  0  0  0  0  0
  -88.6971   30.4176   -4.6609 O   0  0  0  0  0  0  0  0  0  0  0  0
  -90.7890   31.1241   -3.8552 C   0  0  0  0  0  0  0  0  0  0  0  0
  -91.1600   30.8013   -5.2456 N   0  0  0  0  0  0  0  0  0  0  0  0
  -90.9981   31.6078   -5.8819 H   0  0  0  0  0  0  0  0  0  0  0  0
  -90.5400   30.0324   -5.6000 H   0  0  0  0  0  0  0  0  0  0  0  0
  -91.7553   30.4029   -2.9158 C   0  0  0  0  0  0  0  0  0  0  0  0
  -91.8221   28.9855   -3.2862 C   0  0  0  0  0  0  0  0  0  0  0  0
  -90.9888   28.0667   -2.7158 C   0  0  0  0  0  0  0  0  0  0  0  0
  -91.0939   26.7293   -3.0962 C   0  0  0  0  0  0  0  0  0  0  0  0
  -92.0219   26.3377   -4.0306 C   0  0  0  0  0  0  0  0  0  0  0  0
  -92.8736   27.2717   -4.6137 C   0  0  0  0  0  0  0  0  0  0  0  0
  -92.7552   28.5722   -4.2296 C   0  0  0  0  0  0  0  0  0  0  0  0
  -85.2110   28.1640    1.6475 C   0  0  0  0  0  0  0  0  0  0  0  0
  -84.6142   29.4980    1.6586 C   0  0  0  0  0  0  0  0  0  0  0  0
  -85.2044   30.4268    2.5260 C   0  0  0  0  0  0  0  0  0  0  0  0
  -84.6473   31.6640    2.6212 C   0  0  0  0  0  0  0  0  0  0  0  0
  -83.5368   31.9820    1.8821 C   0  0  0  0  0  0  0  0  0  0  0  0
  -82.9555   31.0520    1.0222 C   0  0  0  0  0  0  0  0  0  0  0  0
  -83.5162   29.8062    0.9259 C   0  0  0  0  0  0  0  0  0  0  0  0
 21 22  1  0  0  0
 22 23  1  0  0  0
 22  6  1  0  0  0
  6  2  1  0  0  0
  2  3  1  0  0  0
  3  4  2  0  0  0
  3  1  1  0  0  0
  1 46  1  0  0  0
 46 47  1  0  0  0
 47 48  2  0  0  0
 48 49  1  0  0  0
 49 50  2  0  0  0
 50 51  1  0  0  0
 51 52  2  0  0  0
  1 24  1  0  0  0
 24 25  1  0  0  0
 25 26  2  0  0  0
 25 28  1  0  0  0
 28 29  1  0  0  0
 29 30  1  0  0  0
 30 31  1  0  0  0
 31 32  1  0  0  0
 32 33  1  0  0  0
 33 34  2  0  0  0
 33 35  1  0  0  0
 35 36  1  0  0  0
 35 39  1  0  0  0
 39 40  1  0  0  0
 40 41  2  0  0  0
 41 42  1  0  0  0
 42 43  2  0  0  0
 43 44  1  0  0  0
 44 45  2  0  0  0
  6  7  1  0  0  0
  7  8  2  0  0  0
  7  9  1  0  0  0
  9 11  1  0  0  0
 11 16  1  0  0  0
 16 17  1  0  0  0
 17 18  1  0  0  0
 17 19  2  0  0  0
 11 12  1  0  0  0
 12 13  1  0  0  0
 12 14  2  0  0  0
 52 47  1  0  0  0
 32 28  1  0  0  0
 45 40  1  0  0  0
  2  5  1  0  0  0
 24 27  1  0  0  0
 36 37  1  0  0  0
 36 38  1  0  0  0
  9 10  1  0  0  0
 18 20  1  0  0  0
 13 15  1  0  0  0
M  END
> <minimizedAffinity>
-8.59319

> <CNNscore>
0.1994765699

> <CNNaffinity>
6.8799986839

> <CNN_VS>
1.3723984957

> <CNNaffinity_variance>
0.2370167077

$$$$
[H]OC(=O)C([H])([H])[C@@]([H])(C(=O)O[H])N([H])C(=O)[C@@]([H])(N([H])C(=O)[C@@]([H])(N([H])C(=O)[C@@]1([H])N(C(=O)[C@@]([H])(N([H])[H])C([H])([H])c2c([H])c([H])c([H])c([H])c2[H])C([H])([H])C([H])([H])C1([H])[H])C([H])([H])c1c([H])c([H])c([H])c([H])c1[H])C([H])(C([H])([H])[H])C([H])([H])[H]


 52 54  0  0  0  0  0  0  0  0999 V2000
  -87.7091   27.5402    0.5515 C   0  0  0  0  0  0  0  0  0  0  0  0
  -89.5861   26.6266    2.1055 N   0  0  0  0  0  0  0  0  0  0  0  0
  -88.3020   26.8438    1.6508 C   0  0  0  0  0  0  0  0  0  0  0  0
  -87.3872   26.2527    2.4236 O   0  0  0  0  0  0  0  0  0  0  0  0
  -90.4261   26.9613    1.6146 H   0  0  0  0  0  0  0  0  0  0  0  0
  -89.8930   25.8545    3.3274 C   0  0  0  0  0  0  0  0  0  0  0  0
  -90.5029   24.5707    2.9898 C   0  0  0  0  0  0  0  0  0  0  0  0
  -91.5155   24.2052    3.7218 O   0  0  0  0  0  0  0  0  0  0  0  0
  -90.1573   23.6673    1.9790 N   0  0  0  0  0  0  0  0  0  0  0  0
  -89.3850   23.7838    1.3186 H   0  0  0  0  0  0  0  0  0  0  0  0
  -90.9464   22.4231    1.8020 C   0  0  0  0  0  0  0  0  0  0  0  0
  -90.1003   21.2843    2.2141 C   0  0  0  0  0  0  0  0  0  0  0  0
  -89.0650   20.8816    1.4067 O   0  0  0  0  0  0  0  0  0  0  0  0
  -90.3216   20.6901    3.2830 O   0  0  0  0  0  0  0  0  0  0  0  0
  -88.5146   20.0687    1.5713 H   0  0  0  0  0  0  0  0  0  0  0  0
  -91.3728   22.3193    0.3646 C   0  0  0  0  0  0  0  0  0  0  0  0
  -90.6423   23.1807   -0.5643 C   0  0  0  0  0  0  0  0  0  0  0  0
  -89.3378   22.8331   -0.9386 O   0  0  0  0  0  0  0  0  0  0  0  0
  -91.1260   24.2377   -1.0548 O   0  0  0  0  0  0  0  0  0  0  0  0
  -89.2624   22.2849   -1.7953 H   0  0  0  0  0  0  0  0  0  0  0  0
  -89.8535   26.6542    5.7014 C   0  0  0  0  0  0  0  0  0  0  0  0
  -90.5179   26.7031    4.3537 C   0  0  0  0  0  0  0  0  0  0  0  0
  -90.8417   28.0848    3.8938 C   0  0  0  0  0  0  0  0  0  0  0  0
  -88.4507   28.7489    0.1715 N   0  0  0  0  0  0  0  0  0  0  0  0
  -89.6825   28.7157   -0.5633 C   0  0  0  0  0  0  0  0  0  0  0  0
  -90.1182   27.5975   -0.8727 O   0  0  0  0  0  0  0  0  0  0  0  0
  -88.0743   29.6651    0.4436 H   0  0  0  0  0  0  0  0  0  0  0  0
  -90.3886   29.9361   -0.9307 C   0  0  0  0  0  0  0  0  0  0  0  0
  -91.4254   29.6375   -2.0433 C   0  0  0  0  0  0  0  0  0  0  0  0
  -90.4892   29.5576   -3.2515 C   0  0  0  0  0  0  0  0  0  0  0  0
  -89.2918   30.4261   -2.9037 C   0  0  0  0  0  0  0  0  0  0  0  0
  -89.6328   30.9505   -1.6049 N   0  0  0  0  0  0  0  0  0  0  0  0
  -89.2768   32.2467   -1.1443 C   0  0  0  0  0  0  0  0  0  0  0  0
  -89.6105   32.5776    0.0163 O   0  0  0  0  0  0  0  0  0  0  0  0
  -88.5401   33.2235   -1.9741 C   0  0  0  0  0  0  0  0  0  0  0  0
  -87.2156   32.6516   -2.2798 N   0  0  0  0  0  0  0  0  0  0  0  0
  -86.5047   32.9346   -1.5755 H   0  0  0  0  0  0  0  0  0  0  0  0
  -87.2688   31.6050   -2.2234 H   0  0  0  0  0  0  0  0  0  0  0  0
  -89.2434   33.5490   -3.2915 C   0  0  0  0  0  0  0  0  0  0  0  0
  -89.2650   35.0030   -3.4815 C   0  0  0  0  0  0  0  0  0  0  0  0
  -88.1521   35.7610   -3.2564 C   0  0  0  0  0  0  0  0  0  0  0  0
  -88.2199   37.1394   -3.4562 C   0  0  0  0  0  0  0  0  0  0  0  0
  -89.3878   37.7298   -3.8743 C   0  0  0  0  0  0  0  0  0  0  0  0
  -90.5243   36.9601   -4.1055 C   0  0  0  0  0  0  0  0  0  0  0  0
  -90.4382   35.6166   -3.9043 C   0  0  0  0  0  0  0  0  0  0  0  0
  -86.2806   27.7627    0.4377 C   0  0  0  0  0  0  0  0  0  0  0  0
  -85.7474   28.9443    1.1125 C   0  0  0  0  0  0  0  0  0  0  0  0
  -85.5419   30.0711    0.3053 C   0  0  0  0  0  0  0  0  0  0  0  0
  -85.1072   31.2165    0.8963 C   0  0  0  0  0  0  0  0  0  0  0  0
  -84.8793   31.2547    2.2480 C   0  0  0  0  0  0  0  0  0  0  0  0
  -85.0868   30.1296    3.0438 C   0  0  0  0  0  0  0  0  0  0  0  0
  -85.5245   28.9760    2.4492 C   0  0  0  0  0  0  0  0  0  0  0  0
 21 22  1  0  0  0
 22 23  1  0  0  0
 22  6  1  0  0  0
  6  2  1  0  0  0
  2  3  1  0  0  0
  3  4  2  0  0  0
  3  1  1  0  0  0
  1 46  1  0  0  0
 46 47  1  0  0  0
 47 48  2  0  0  0
 48 49  1  0  0  0
 49 50  2  0  0  0
 50 51  1  0  0  0
 51 52  2  0  0  0
  1 24  1  0  0  0
 24 25  1  0  0  0
 25 26  2  0  0  0
 25 28  1  0  0  0
 28 29  1  0  0  0
 29 30  1  0  0  0
 30 31  1  0  0  0
 31 32  1  0  0  0
 32 33  1  0  0  0
 33 34  2  0  0  0
 33 35  1  0  0  0
 35 36  1  0  0  0
 35 39  1  0  0  0
 39 40  1  0  0  0
 40 41  2  0  0  0
 41 42  1  0  0  0
 42 43  2  0  0  0
 43 44  1  0  0  0
 44 45  2  0  0  0
  6  7  1  0  0  0
  7  8  2  0  0  0
  7  9  1  0  0  0
  9 11  1  0  0  0
 11 16  1  0  0  0
 16 17  1  0  0  0
 17 18  1  0  0  0
 17 19  2  0  0  0
 11 12  1  0  0  0
 12 13  1  0  0  0
 12 14  2  0  0  0
 52 47  1  0  0  0
 32 28  1  0  0  0
 45 40  1  0  0  0
  2  5  1  0  0  0
 24 27  1  0  0  0
 36 37  1  0  0  0
 36 38  1  0  0  0
  9 10  1  0  0  0
 18 20  1  0  0  0
 13 15  1  0  0  0
M  END
> <minimizedAffinity>
-9.29765

> <CNNscore>
0.1847083122

> <CNNaffinity>
6.6498513222

> <CNN_VS>
1.2282828093

> <CNNaffinity_variance>
0.2920581698

$$$$
[H]OC(=O)C([H])([H])[C@@]([H])(C(=O)O[H])N([H])C(=O)[C@@]([H])(N([H])C(=O)[C@@]([H])(N([H])C(=O)[C@@]1([H])N(C(=O)[C@@]([H])(N([H])[H])C([H])([H])c2c([H])c([H])c([H])c([H])c2[H])C([H])([H])C([H])([H])C1([H])[H])C([H])([H])c1c([H])c([H])c([H])c([H])c1[H])C([H])(C([H])([H])[H])C([H])([H])[H]


 52 54  0  0  0  0  0  0  0  0999 V2000
  -86.9137   32.3882   -0.8309 C   0  0  0  0  0  0  0  0  0  0  0  0
  -87.2618   29.8178   -0.6204 N   0  0  0  0  0  0  0  0  0  0  0  0
  -87.6083   31.1528   -0.6405 C   0  0  0  0  0  0  0  0  0  0  0  0
  -88.9126   31.3381   -0.4218 O   0  0  0  0  0  0  0  0  0  0  0  0
  -86.2947   29.4811   -0.7206 H   0  0  0  0  0  0  0  0  0  0  0  0
  -88.2400   28.7300   -0.4127 C   0  0  0  0  0  0  0  0  0  0  0  0
  -88.0907   28.1458    0.9180 C   0  0  0  0  0  0  0  0  0  0  0  0
  -86.9040   28.2194    1.4482 O   0  0  0  0  0  0  0  0  0  0  0  0
  -89.0495   27.5155    1.7185 N   0  0  0  0  0  0  0  0  0  0  0  0
  -90.0268   27.3591    1.4606 H   0  0  0  0  0  0  0  0  0  0  0  0
  -88.6728   27.0183    3.0649 C   0  0  0  0  0  0  0  0  0  0  0  0
  -89.0111   25.5817    3.1312 C   0  0  0  0  0  0  0  0  0  0  0  0
  -89.3457   24.9100    1.9811 O   0  0  0  0  0  0  0  0  0  0  0  0
  -88.9963   24.9811    4.2192 O   0  0  0  0  0  0  0  0  0  0  0  0
  -89.6747   23.9707    1.9608 H   0  0  0  0  0  0  0  0  0  0  0  0
  -89.4080   27.8205    4.1016 C   0  0  0  0  0  0  0  0  0  0  0  0
  -90.8637   27.8304    3.9629 C   0  0  0  0  0  0  0  0  0  0  0  0
  -91.6188   26.8356    4.5976 O   0  0  0  0  0  0  0  0  0  0  0  0
  -91.4894   28.6962    3.2915 O   0  0  0  0  0  0  0  0  0  0  0  0
  -91.9657   27.0782    5.5254 H   0  0  0  0  0  0  0  0  0  0  0  0
  -87.7856   28.4437   -2.8598 C   0  0  0  0  0  0  0  0  0  0  0  0
  -88.3134   27.8453   -1.5856 C   0  0  0  0  0  0  0  0  0  0  0  0
  -87.8398   26.4531   -1.3349 C   0  0  0  0  0  0  0  0  0  0  0  0
  -87.7626   33.4413   -1.4015 N   0  0  0  0  0  0  0  0  0  0  0  0
  -87.3532   34.2723   -2.4970 C   0  0  0  0  0  0  0  0  0  0  0  0
  -86.2250   34.0629   -2.9655 O   0  0  0  0  0  0  0  0  0  0  0  0
  -88.6965   33.5935   -1.0015 H   0  0  0  0  0  0  0  0  0  0  0  0
  -88.2190   35.3140   -3.0338 C   0  0  0  0  0  0  0  0  0  0  0  0
  -89.4880   34.6819   -3.6600 C   0  0  0  0  0  0  0  0  0  0  0  0
  -88.9009   34.1859   -4.9836 C   0  0  0  0  0  0  0  0  0  0  0  0
  -87.7214   35.0971   -5.2791 C   0  0  0  0  0  0  0  0  0  0  0  0
  -87.7448   36.0309   -4.1810 N   0  0  0  0  0  0  0  0  0  0  0  0
  -87.3761   37.3993   -4.2835 C   0  0  0  0  0  0  0  0  0  0  0  0
  -87.4147   38.1044   -3.2495 O   0  0  0  0  0  0  0  0  0  0  0  0
  -86.9585   38.0292   -5.5541 C   0  0  0  0  0  0  0  0  0  0  0  0
  -88.1680   38.2564   -6.3669 N   0  0  0  0  0  0  0  0  0  0  0  0
  -88.3611   37.4530   -6.9984 H   0  0  0  0  0  0  0  0  0  0  0  0
  -89.0024   38.3260   -5.7343 H   0  0  0  0  0  0  0  0  0  0  0  0
  -86.2468   39.3677   -5.3594 C   0  0  0  0  0  0  0  0  0  0  0  0
  -84.8210   39.2054   -5.6617 C   0  0  0  0  0  0  0  0  0  0  0  0
  -83.9341   38.8210   -4.6975 C   0  0  0  0  0  0  0  0  0  0  0  0
  -82.5889   38.6746   -5.0345 C   0  0  0  0  0  0  0  0  0  0  0  0
  -82.1584   38.9123   -6.3173 C   0  0  0  0  0  0  0  0  0  0  0  0
  -83.0599   39.3037   -7.3031 C   0  0  0  0  0  0  0  0  0  0  0  0
  -84.3684   39.4416   -6.9544 C   0  0  0  0  0  0  0  0  0  0  0  0
  -86.0084   32.9437    0.1566 C   0  0  0  0  0  0  0  0  0  0  0  0
  -84.8679   32.1132    0.5381 C   0  0  0  0  0  0  0  0  0  0  0  0
  -85.0565   31.2878    1.6546 C   0  0  0  0  0  0  0  0  0  0  0  0
  -84.0481   30.4484    2.0131 C   0  0  0  0  0  0  0  0  0  0  0  0
  -82.8817   30.4200    1.2924 C   0  0  0  0  0  0  0  0  0  0  0  0
  -82.7025   31.2438    0.1827 C   0  0  0  0  0  0  0  0  0  0  0  0
  -83.7176   32.0893   -0.1786 C   0  0  0  0  0  0  0  0  0  0  0  0
 21 22  1  0  0  0
 22 23  1  0  0  0
 22  6  1  0  0  0
  6  2  1  0  0  0
  2  3  1  0  0  0
  3  4  2  0  0  0
  3  1  1  0  0  0
  1 46  1  0  0  0
 46 47  1  0  0  0
 47 48  2  0  0  0
 48 49  1  0  0  0
 49 50  2  0  0  0
 50 51  1  0  0  0
 51 52  2  0  0  0
  1 24  1  0  0  0
 24 25  1  0  0  0
 25 26  2  0  0  0
 25 28  1  0  0  0
 28 29  1  0  0  0
 29 30  1  0  0  0
 30 31  1  0  0  0
 31 32  1  0  0  0
 32 33  1  0  0  0
 33 34  2  0  0  0
 33 35  1  0  0  0
 35 36  1  0  0  0
 35 39  1  0  0  0
 39 40  1  0  0  0
 40 41  2  0  0  0
 41 42  1  0  0  0
 42 43  2  0  0  0
 43 44  1  0  0  0
 44 45  2  0  0  0
  6  7  1  0  0  0
  7  8  2  0  0  0
  7  9  1  0  0  0
  9 11  1  0  0  0
 11 16  1  0  0  0
 16 17  1  0  0  0
 17 18  1  0  0  0
 17 19  2  0  0  0
 11 12  1  0  0  0
 12 13  1  0  0  0
 12 14  2  0  0  0
 52 47  1  0  0  0
 32 28  1  0  0  0
 45 40  1  0  0  0
  2  5  1  0  0  0
 24 27  1  0  0  0
 36 37  1  0  0  0
 36 38  1  0  0  0
  9 10  1  0  0  0
 18 20  1  0  0  0
 13 15  1  0  0  0
M  END
> <minimizedAffinity>
-9.16216

> <CNNscore>
0.1471090913

> <CNNaffinity>
6.6311621666

> <CNN_VS>
0.9755042195

> <CNNaffinity_variance>
0.2481752932

$$$$
[H]OC(=O)C([H])([H])[C@@]([H])(C(=O)O[H])N([H])C(=O)[C@@]([H])(N([H])C(=O)[C@@]([H])(N([H])C(=O)[C@@]1([H])N(C(=O)[C@@]([H])(N([H])[H])C([H])([H])c2c([H])c([H])c([H])c([H])c2[H])C([H])([H])C([H])([H])C1([H])[H])C([H])([H])c1c([H])c([H])c([H])c([H])c1[H])C([H])(C([H])([H])[H])C([H])([H])[H]


 52 54  0  0  0  0  0  0  0  0999 V2000
  -87.2245   27.8705    1.0821 C   0  0  0  0  0  0  0  0  0  0  0  0
  -89.2266   26.8936    2.4274 N   0  0  0  0  0  0  0  0  0  0  0  0
  -87.9189   27.0345    2.0115 C   0  0  0  0  0  0  0  0  0  0  0  0
  -87.1005   26.1738    2.6221 O   0  0  0  0  0  0  0  0  0  0  0  0
  -90.0084   27.4350    2.0345 H   0  0  0  0  0  0  0  0  0  0  0  0
  -89.6492   25.9201    3.4555 C   0  0  0  0  0  0  0  0  0  0  0  0
  -90.3695   24.8040    2.8474 C   0  0  0  0  0  0  0  0  0  0  0  0
  -91.3231   24.2783    3.5610 O   0  0  0  0  0  0  0  0  0  0  0  0
  -90.1860   24.2130    1.5926 N   0  0  0  0  0  0  0  0  0  0  0  0
  -89.4792   24.4874    0.9060 H   0  0  0  0  0  0  0  0  0  0  0  0
  -91.0653   23.0952    1.1695 C   0  0  0  0  0  0  0  0  0  0  0  0
  -90.2359   22.1138    0.4403 C   0  0  0  0  0  0  0  0  0  0  0  0
  -88.9805   22.4712    0.0134 O   0  0  0  0  0  0  0  0  0  0  0  0
  -90.6682   20.9715    0.2106 O   0  0  0  0  0  0  0  0  0  0  0  0
  -88.4044   21.8986   -0.5621 H   0  0  0  0  0  0  0  0  0  0  0  0
  -92.1723   23.6454    0.3148 C   0  0  0  0  0  0  0  0  0  0  0  0
  -91.8432   24.8674   -0.4179 C   0  0  0  0  0  0  0  0  0  0  0  0
  -92.3061   26.0994    0.0623 O   0  0  0  0  0  0  0  0  0  0  0  0
  -91.1569   24.8764   -1.4766 O   0  0  0  0  0  0  0  0  0  0  0  0
  -91.6588   26.6000    0.6711 H   0  0  0  0  0  0  0  0  0  0  0  0
  -89.5946   26.2214    5.9421 C   0  0  0  0  0  0  0  0  0  0  0  0
  -90.2233   26.5963    4.6289 C   0  0  0  0  0  0  0  0  0  0  0  0
  -90.4208   28.0648    4.4554 C   0  0  0  0  0  0  0  0  0  0  0  0
  -87.8808   27.9384   -0.2293 N   0  0  0  0  0  0  0  0  0  0  0  0
  -89.0501   28.7304   -0.4820 C   0  0  0  0  0  0  0  0  0  0  0  0
  -89.5006   29.3811    0.4718 O   0  0  0  0  0  0  0  0  0  0  0  0
  -87.4869   27.3956   -1.0074 H   0  0  0  0  0  0  0  0  0  0  0  0
  -89.6807   28.7686   -1.7949 C   0  0  0  0  0  0  0  0  0  0  0  0
  -89.0961   27.6542   -2.6995 C   0  0  0  0  0  0  0  0  0  0  0  0
  -87.7645   28.3055   -3.0806 C   0  0  0  0  0  0  0  0  0  0  0  0
  -87.9977   29.8044   -2.9909 C   0  0  0  0  0  0  0  0  0  0  0  0
  -89.3894   29.8989   -2.6271 N   0  0  0  0  0  0  0  0  0  0  0  0
  -90.2639   30.9311   -3.0615 C   0  0  0  0  0  0  0  0  0  0  0  0
  -91.4482   30.9170   -2.6553 O   0  0  0  0  0  0  0  0  0  0  0  0
  -89.8427   32.0133   -3.9763 C   0  0  0  0  0  0  0  0  0  0  0  0
  -90.8968   32.1835   -4.9936 N   0  0  0  0  0  0  0  0  0  0  0  0
  -90.7142   31.6004   -5.8351 H   0  0  0  0  0  0  0  0  0  0  0  0
  -91.8105   31.8426   -4.6060 H   0  0  0  0  0  0  0  0  0  0  0  0
  -89.6296   33.3521   -3.2704 C   0  0  0  0  0  0  0  0  0  0  0  0
  -88.3829   33.2992   -2.4998 C   0  0  0  0  0  0  0  0  0  0  0  0
  -88.3840   32.9581   -1.1778 C   0  0  0  0  0  0  0  0  0  0  0  0
  -87.1726   32.9160   -0.4885 C   0  0  0  0  0  0  0  0  0  0  0  0
  -85.9928   33.2121   -1.1270 C   0  0  0  0  0  0  0  0  0  0  0  0
  -85.9878   33.5596   -2.4750 C   0  0  0  0  0  0  0  0  0  0  0  0
  -87.1803   33.5955   -3.1303 C   0  0  0  0  0  0  0  0  0  0  0  0
  -86.6738   29.1626    1.4432 C   0  0  0  0  0  0  0  0  0  0  0  0
  -85.2180   29.2490    1.5384 C   0  0  0  0  0  0  0  0  0  0  0  0
  -84.6263   30.3507    0.9060 C   0  0  0  0  0  0  0  0  0  0  0  0
  -83.2805   30.5122    1.0187 C   0  0  0  0  0  0  0  0  0  0  0  0
  -82.5329   29.6132    1.7353 C   0  0  0  0  0  0  0  0  0  0  0  0
  -83.1293   28.5205    2.3618 C   0  0  0  0  0  0  0  0  0  0  0  0
  -84.4845   28.3574    2.2485 C   0  0  0  0  0  0  0  0  0  0  0  0
 21 22  1  0  0  0
 22 23  1  0  0  0
 22  6  1  0  0  0
  6  2  1  0  0  0
  2  3  1  0  0  0
  3  4  2  0  0  0
  3  1  1  0  0  0
  1 46  1  0  0  0
 46 47  1  0  0  0
 47 48  2  0  0  0
 48 49  1  0  0  0
 49 50  2  0  0  0
 50 51  1  0  0  0
 51 52  2  0  0  0
  1 24  1  0  0  0
 24 25  1  0  0  0
 25 26  2  0  0  0
 25 28  1  0  0  0
 28 29  1  0  0  0
 29 30  1  0  0  0
 30 31  1  0  0  0
 31 32  1  0  0  0
 32 33  1  0  0  0
 33 34  2  0  0  0
 33 35  1  0  0  0
 35 36  1  0  0  0
 35 39  1  0  0  0
 39 40  1  0  0  0
 40 41  2  0  0  0
 41 42  1  0  0  0
 42 43  2  0  0  0
 43 44  1  0  0  0
 44 45  2  0  0  0
  6  7  1  0  0  0
  7  8  2  0  0  0
  7  9  1  0  0  0
  9 11  1  0  0  0
 11 16  1  0  0  0
 16 17  1  0  0  0
 17 18  1  0  0  0
 17 19  2  0  0  0
 11 12  1  0  0  0
 12 13  1  0  0  0
 12 14  2  0  0  0
 52 47  1  0  0  0
 32 28  1  0  0  0
 45 40  1  0  0  0
  2  5  1  0  0  0
 24 27  1  0  0  0
 36 37  1  0  0  0
 36 38  1  0  0  0
  9 10  1  0  0  0
 18 20  1  0  0  0
 13 15  1  0  0  0
M  END
> <minimizedAffinity>
-9.60394

> <CNNscore>
0.1321168244

> <CNNaffinity>
6.7814207077

> <CNN_VS>
0.8959397674

> <CNNaffinity_variance>
0.4184888303

$$$$
[H]OC(=O)C([H])([H])[C@@]([H])(C(=O)O[H])N([H])C(=O)[C@@]([H])(N([H])C(=O)[C@@]([H])(N([H])C(=O)[C@@]1([H])N(C(=O)[C@@]([H])(N([H])[H])C([H])([H])c2c([H])c([H])c([H])c([H])c2[H])C([H])([H])C([H])([H])C1([H])[H])C([H])([H])c1c([H])c([H])c([H])c([H])c1[H])C([H])(C([H])([H])[H])C([H])([H])[H]


 52 54  0  0  0  0  0  0  0  0999 V2000
  -89.4370   27.6162   -2.1718 C   0  0  0  0  0  0  0  0  0  0  0  0
  -91.5904   26.1741   -1.9364 N   0  0  0  0  0  0  0  0  0  0  0  0
  -90.7059   27.1967   -1.6632 C   0  0  0  0  0  0  0  0  0  0  0  0
  -91.1375   27.9858   -0.6760 O   0  0  0  0  0  0  0  0  0  0  0  0
  -91.4086   25.4370   -2.6309 H   0  0  0  0  0  0  0  0  0  0  0  0
  -92.8778   26.0064   -1.2308 C   0  0  0  0  0  0  0  0  0  0  0  0
  -92.7868   24.9441   -0.2320 C   0  0  0  0  0  0  0  0  0  0  0  0
  -93.8748   24.2620   -0.0177 O   0  0  0  0  0  0  0  0  0  0  0  0
  -91.6867   24.5439    0.5341 N   0  0  0  0  0  0  0  0  0  0  0  0
  -90.7580   24.9716    0.5063 H   0  0  0  0  0  0  0  0  0  0  0  0
  -91.8211   23.4063    1.4773 C   0  0  0  0  0  0  0  0  0  0  0  0
  -91.1190   23.7650    2.7268 C   0  0  0  0  0  0  0  0  0  0  0  0
  -89.8246   24.2203    2.6706 O   0  0  0  0  0  0  0  0  0  0  0  0
  -91.6916   23.6549    3.8243 O   0  0  0  0  0  0  0  0  0  0  0  0
  -89.2593   24.3907    3.4721 H   0  0  0  0  0  0  0  0  0  0  0  0
  -91.2432   22.1750    0.8379 C   0  0  0  0  0  0  0  0  0  0  0  0
  -90.3211   22.4239   -0.2694 C   0  0  0  0  0  0  0  0  0  0  0  0
  -88.9763   22.7007    0.0085 O   0  0  0  0  0  0  0  0  0  0  0  0
  -90.6729   22.4056   -1.4809 O   0  0  0  0  0  0  0  0  0  0  0  0
  -88.3551   21.8918    0.0020 H   0  0  0  0  0  0  0  0  0  0  0  0
  -94.5449   27.3853   -2.4942 C   0  0  0  0  0  0  0  0  0  0  0  0
  -94.0089   26.0183   -2.1711 C   0  0  0  0  0  0  0  0  0  0  0  0
  -93.8209   25.1488   -3.3686 C   0  0  0  0  0  0  0  0  0  0  0  0
  -89.2464   29.0705   -2.1088 N   0  0  0  0  0  0  0  0  0  0  0  0
  -89.8422   29.9815   -3.0434 C   0  0  0  0  0  0  0  0  0  0  0  0
  -90.5506   29.4864   -3.9317 O   0  0  0  0  0  0  0  0  0  0  0  0
  -88.6602   29.4598   -1.3605 H   0  0  0  0  0  0  0  0  0  0  0  0
  -89.6255   31.4196   -2.9559 C   0  0  0  0  0  0  0  0  0  0  0  0
  -90.0222   32.1006   -4.2904 C   0  0  0  0  0  0  0  0  0  0  0  0
  -88.7942   31.7481   -5.1331 C   0  0  0  0  0  0  0  0  0  0  0  0
  -87.6519   31.5761   -4.1459 C   0  0  0  0  0  0  0  0  0  0  0  0
  -88.2677   31.8722   -2.8765 N   0  0  0  0  0  0  0  0  0  0  0  0
  -87.6071   32.5143   -1.7947 C   0  0  0  0  0  0  0  0  0  0  0  0
  -88.2437   32.6936   -0.7315 O   0  0  0  0  0  0  0  0  0  0  0  0
  -86.2085   32.9873   -1.8700 C   0  0  0  0  0  0  0  0  0  0  0  0
  -86.1379   34.0314   -2.9091 N   0  0  0  0  0  0  0  0  0  0  0  0
  -85.8982   33.6308   -3.8384 H   0  0  0  0  0  0  0  0  0  0  0  0
  -87.0846   34.4691   -3.0253 H   0  0  0  0  0  0  0  0  0  0  0  0
  -85.6985   33.5767   -0.5552 C   0  0  0  0  0  0  0  0  0  0  0  0
  -84.7066   32.6682    0.0293 C   0  0  0  0  0  0  0  0  0  0  0  0
  -83.4477   32.5694   -0.4894 C   0  0  0  0  0  0  0  0  0  0  0  0
  -82.5374   31.6955    0.1043 C   0  0  0  0  0  0  0  0  0  0  0  0
  -82.8984   30.9437    1.1960 C   0  0  0  0  0  0  0  0  0  0  0  0
  -84.1809   31.0423    1.7279 C   0  0  0  0  0  0  0  0  0  0  0  0
  -85.0550   31.9004    1.1342 C   0  0  0  0  0  0  0  0  0  0  0  0
  -88.1982   26.9269   -1.8657 C   0  0  0  0  0  0  0  0  0  0  0  0
  -87.5976   27.2094   -0.5636 C   0  0  0  0  0  0  0  0  0  0  0  0
  -87.8987   26.3017    0.4606 C   0  0  0  0  0  0  0  0  0  0  0  0
  -87.3141   26.4836    1.6751 C   0  0  0  0  0  0  0  0  0  0  0  0
  -86.4542   27.5321    1.8796 C   0  0  0  0  0  0  0  0  0  0  0  0
  -86.1596   28.4300    0.8553 C   0  0  0  0  0  0  0  0  0  0  0  0
  -86.7480   28.2473   -0.3679 C   0  0  0  0  0  0  0  0  0  0  0  0
 21 22  1  0  0  0
 22 23  1  0  0  0
 22  6  1  0  0  0
  6  2  1  0  0  0
  2  3  1  0  0  0
  3  4  2  0  0  0
  3  1  1  0  0  0
  1 46  1  0  0  0
 46 47  1  0  0  0
 47 48  2  0  0  0
 48 49  1  0  0  0
 49 50  2  0  0  0
 50 51  1  0  0  0
 51 52  2  0  0  0
  1 24  1  0  0  0
 24 25  1  0  0  0
 25 26  2  0  0  0
 25 28  1  0  0  0
 28 29  1  0  0  0
 29 30  1  0  0  0
 30 31  1  0  0  0
 31 32  1  0  0  0
 32 33  1  0  0  0
 33 34  2  0  0  0
 33 35  1  0  0  0
 35 36  1  0  0  0
 35 39  1  0  0  0
 39 40  1  0  0  0
 40 41  2  0  0  0
 41 42  1  0  0  0
 42 43  2  0  0  0
 43 44  1  0  0  0
 44 45  2  0  0  0
  6  7  1  0  0  0
  7  8  2  0  0  0
  7  9  1  0  0  0
  9 11  1  0  0  0
 11 16  1  0  0  0
 16 17  1  0  0  0
 17 18  1  0  0  0
 17 19  2  0  0  0
 11 12  1  0  0  0
 12 13  1  0  0  0
 12 14  2  0  0  0
 52 47  1  0  0  0
 32 28  1  0  0  0
 45 40  1  0  0  0
  2  5  1  0  0  0
 24 27  1  0  0  0
 36 37  1  0  0  0
 36 38  1  0  0  0
  9 10  1  0  0  0
 18 20  1  0  0  0
 13 15  1  0  0  0
M  END
> <minimizedAffinity>
-9.40231

> <CNNscore>
0.1037489176

> <CNNaffinity>
6.2695531845

> <CNN_VS>
0.6504593492

> <CNNaffinity_variance>
0.6712237000

$$$$
[H]OC(=O)C([H])([H])[C@@]([H])(C(=O)O[H])N([H])C(=O)[C@@]([H])(N([H])C(=O)[C@@]([H])(N([H])C(=O)[C@@]1([H])N(C(=O)[C@@]([H])(N([H])[H])C([H])([H])c2c([H])c([H])c([H])c([H])c2[H])C([H])([H])C([H])([H])C1([H])[H])C([H])([H])c1c([H])c([H])c([H])c([H])c1[H])C([H])(C([H])([H])[H])C([H])([H])[H]


 52 54  0  0  0  0  0  0  0  0999 V2000
  -86.6719   28.2313    0.6899 C   0  0  0  0  0  0  0  0  0  0  0  0
  -89.0457   27.2872    1.1862 N   0  0  0  0  0  0  0  0  0  0  0  0
  -87.6742   27.4003    1.2811 C   0  0  0  0  0  0  0  0  0  0  0  0
  -87.1528   26.5100    2.1291 O   0  0  0  0  0  0  0  0  0  0  0  0
  -89.6189   27.8542    0.5470 H   0  0  0  0  0  0  0  0  0  0  0  0
  -89.8339   26.3102    1.9657 C   0  0  0  0  0  0  0  0  0  0  0  0
  -90.3120   25.2282    1.1084 C   0  0  0  0  0  0  0  0  0  0  0  0
  -91.5493   25.3127    0.7125 O   0  0  0  0  0  0  0  0  0  0  0  0
  -89.6250   24.1029    0.6403 N   0  0  0  0  0  0  0  0  0  0  0  0
  -88.6535   23.8686    0.8580 H   0  0  0  0  0  0  0  0  0  0  0  0
  -90.3133   23.1393   -0.2538 C   0  0  0  0  0  0  0  0  0  0  0  0
  -89.7596   21.7956    0.0118 C   0  0  0  0  0  0  0  0  0  0  0  0
  -88.3994   21.6275    0.0975 O   0  0  0  0  0  0  0  0  0  0  0  0
  -90.5162   20.8202    0.1555 O   0  0  0  0  0  0  0  0  0  0  0  0
  -87.9521   20.7419    0.1798 H   0  0  0  0  0  0  0  0  0  0  0  0
  -90.1033   23.5653   -1.6797 C   0  0  0  0  0  0  0  0  0  0  0  0
  -91.3207   23.6688   -2.4834 C   0  0  0  0  0  0  0  0  0  0  0  0
  -91.9091   22.5021   -2.9884 O   0  0  0  0  0  0  0  0  0  0  0  0
  -91.8799   24.7668   -2.7547 O   0  0  0  0  0  0  0  0  0  0  0  0
  -92.6400   22.0957   -2.4047 H   0  0  0  0  0  0  0  0  0  0  0  0
  -90.5317   26.7365    4.3338 C   0  0  0  0  0  0  0  0  0  0  0  0
  -90.7768   26.9842    2.8714 C   0  0  0  0  0  0  0  0  0  0  0  0
  -91.0297   28.4164    2.5392 C   0  0  0  0  0  0  0  0  0  0  0  0
  -87.1677   29.5690    0.3431 N   0  0  0  0  0  0  0  0  0  0  0  0
  -87.4338   29.9827   -1.0046 C   0  0  0  0  0  0  0  0  0  0  0  0
  -87.2305   29.1460   -1.8960 O   0  0  0  0  0  0  0  0  0  0  0  0
  -87.3350   30.2447    1.0985 H   0  0  0  0  0  0  0  0  0  0  0  0
  -87.9183   31.3216   -1.3136 C   0  0  0  0  0  0  0  0  0  0  0  0
  -89.0370   31.7260   -0.3202 C   0  0  0  0  0  0  0  0  0  0  0  0
  -90.2043   30.9323   -0.9117 C   0  0  0  0  0  0  0  0  0  0  0  0
  -89.8870   30.7708   -2.3890 C   0  0  0  0  0  0  0  0  0  0  0  0
  -88.6449   31.4872   -2.5381 N   0  0  0  0  0  0  0  0  0  0  0  0
  -88.2758   32.2203   -3.6979 C   0  0  0  0  0  0  0  0  0  0  0  0
  -87.1560   32.7804   -3.7159 O   0  0  0  0  0  0  0  0  0  0  0  0
  -89.1552   32.3593   -4.8781 C   0  0  0  0  0  0  0  0  0  0  0  0
  -89.6464   31.0164   -5.2387 N   0  0  0  0  0  0  0  0  0  0  0  0
  -89.0273   30.5571   -5.9368 H   0  0  0  0  0  0  0  0  0  0  0  0
  -89.6224   30.3994   -4.3901 H   0  0  0  0  0  0  0  0  0  0  0  0
  -90.3605   33.2659   -4.6299 C   0  0  0  0  0  0  0  0  0  0  0  0
  -91.1361   33.3887   -5.8685 C   0  0  0  0  0  0  0  0  0  0  0  0
  -92.3820   32.8416   -5.9785 C   0  0  0  0  0  0  0  0  0  0  0  0
  -93.0833   32.9897   -7.1746 C   0  0  0  0  0  0  0  0  0  0  0  0
  -92.5321   33.6762   -8.2292 C   0  0  0  0  0  0  0  0  0  0  0  0
  -91.2623   34.2360   -8.1205 C   0  0  0  0  0  0  0  0  0  0  0  0
  -90.5936   34.0802   -6.9451 C   0  0  0  0  0  0  0  0  0  0  0  0
  -85.3134   28.3064    1.1920 C   0  0  0  0  0  0  0  0  0  0  0  0
  -84.7210   29.6397    1.2773 C   0  0  0  0  0  0  0  0  0  0  0  0
  -84.9887   30.3558    2.4516 C   0  0  0  0  0  0  0  0  0  0  0  0
  -84.4089   31.5761    2.6085 C   0  0  0  0  0  0  0  0  0  0  0  0
  -83.5856   32.0817    1.6353 C   0  0  0  0  0  0  0  0  0  0  0  0
  -83.3239   31.3627    0.4706 C   0  0  0  0  0  0  0  0  0  0  0  0
  -83.9076   30.1338    0.3121 C   0  0  0  0  0  0  0  0  0  0  0  0
 21 22  1  0  0  0
 22 23  1  0  0  0
 22  6  1  0  0  0
  6  2  1  0  0  0
  2  3  1  0  0  0
  3  4  2  0  0  0
  3  1  1  0  0  0
  1 46  1  0  0  0
 46 47  1  0  0  0
 47 48  2  0  0  0
 48 49  1  0  0  0
 49 50  2  0  0  0
 50 51  1  0  0  0
 51 52  2  0  0  0
  1 24  1  0  0  0
 24 25  1  0  0  0
 25 26  2  0  0  0
 25 28  1  0  0  0
 28 29  1  0  0  0
 29 30  1  0  0  0
 30 31  1  0  0  0
 31 32  1  0  0  0
 32 33  1  0  0  0
 33 34  2  0  0  0
 33 35  1  0  0  0
 35 36  1  0  0  0
 35 39  1  0  0  0
 39 40  1  0  0  0
 40 41  2  0  0  0
 41 42  1  0  0  0
 42 43  2  0  0  0
 43 44  1  0  0  0
 44 45  2  0  0  0
  6  7  1  0  0  0
  7  8  2  0  0  0
  7  9  1  0  0  0
  9 11  1  0  0  0
 11 16  1  0  0  0
 16 17  1  0  0  0
 17 18  1  0  0  0
 17 19  2  0  0  0
 11 12  1  0  0  0
 12 13  1  0  0  0
 12 14  2  0  0  0
 52 47  1  0  0  0
 32 28  1  0  0  0
 45 40  1  0  0  0
  2  5  1  0  0  0
 24 27  1  0  0  0
 36 37  1  0  0  0
 36 38  1  0  0  0
  9 10  1  0  0  0
 18 20  1  0  0  0
 13 15  1  0  0  0
M  END
> <minimizedAffinity>
-9.28011

> <CNNscore>
0.0912776813

> <CNNaffinity>
6.5039734840

> <CNN_VS>
0.5936676264

> <CNNaffinity_variance>
0.2437836379

$$$$
[H]Oc1nc([H])c(C(=O)C([H])([H])C([H])([H])N2C([H])([H])C([H])([H])C([H])([H])C2([H])[H])c([H])c1[H]


 17 18  0  0  0  0  0  0  0  0999 V2000
  -84.4717   31.6624    0.3119 C   0  0  0  0  0  0  0  0  0  0  0  0
  -83.4810   32.3391   -0.1061 O   0  0  0  0  0  0  0  0  0  0  0  0
  -83.3703   26.9699    3.2252 O   0  0  0  0  0  0  0  0  0  0  0  0
  -83.6221   28.1416    2.5004 C   0  0  0  0  0  0  0  0  0  0  0  0
  -82.5932   28.9553    2.1288 C   0  0  0  0  0  0  0  0  0  0  0  0
  -82.8967   30.0949    1.4174 C   0  0  0  0  0  0  0  0  0  0  0  0
  -84.1792   30.4420    1.0703 C   0  0  0  0  0  0  0  0  0  0  0  0
  -85.1898   29.5906    1.4662 C   0  0  0  0  0  0  0  0  0  0  0  0
  -84.8892   28.4653    2.1689 N   0  0  0  0  0  0  0  0  0  0  0  0
  -82.7319   26.9216    3.9968 H   0  0  0  0  0  0  0  0  0  0  0  0
  -85.8742   32.0836    0.0475 C   0  0  0  0  0  0  0  0  0  0  0  0
  -85.8376   33.2116   -0.9354 C   0  0  0  0  0  0  0  0  0  0  0  0
  -86.7863   33.0711   -2.0088 N   0  0  0  0  0  0  0  0  0  0  0  0
  -88.0960   32.8762   -1.4067 C   0  0  0  0  0  0  0  0  0  0  0  0
  -89.0826   33.4975   -2.3824 C   0  0  0  0  0  0  0  0  0  0  0  0
  -88.2928   34.6812   -2.8942 C   0  0  0  0  0  0  0  0  0  0  0  0
  -86.8635   34.1894   -2.8800 C   0  0  0  0  0  0  0  0  0  0  0  0
  3  4  1  0  0  0
  4  5  2  0  0  0
  5  6  1  0  0  0
  6  7  2  0  0  0
  7  8  1  0  0  0
  8  9  2  0  0  0
  7  1  1  0  0  0
  1  2  2  0  0  0
  1 11  1  0  0  0
 11 12  1  0  0  0
 12 13  1  0  0  0
 13 14  1  0  0  0
 14 15  1  0  0  0
 15 16  1  0  0  0
 16 17  1  0  0  0
  9  4  1  0  0  0
 17 13  1  0  0  0
  3 10  1  0  0  0
M  END
> <minimizedAffinity>
-7.11442

> <CNNscore>
0.8440675139

> <CNNaffinity>
5.3823246956

> <CNN_VS>
4.5430455208

> <CNNaffinity_variance>
0.1577650011

$$$$
[H]Oc1nc([H])c(C(=O)C([H])([H])C([H])([H])N2C([H])([H])C([H])([H])C([H])([H])C2([H])[H])c([H])c1[H]


 17 18  0  0  0  0  0  0  0  0999 V2000
  -86.1628   29.2685    0.6488 C   0  0  0  0  0  0  0  0  0  0  0  0
  -85.6850   28.2959    1.3121 O   0  0  0  0  0  0  0  0  0  0  0  0
  -82.7860   33.6749   -0.3003 O   0  0  0  0  0  0  0  0  0  0  0  0
  -83.6078   32.5671   -0.0574 C   0  0  0  0  0  0  0  0  0  0  0  0
  -83.0747   31.4060    0.4185 C   0  0  0  0  0  0  0  0  0  0  0  0
  -83.9278   30.3476    0.6398 C   0  0  0  0  0  0  0  0  0  0  0  0
  -85.2790   30.4125    0.4035 C   0  0  0  0  0  0  0  0  0  0  0  0
  -85.7764   31.6058   -0.0777 C   0  0  0  0  0  0  0  0  0  0  0  0
  -84.9331   32.6507   -0.2960 N   0  0  0  0  0  0  0  0  0  0  0  0
  -81.8932   33.6144   -0.7526 H   0  0  0  0  0  0  0  0  0  0  0  0
  -87.5604   29.2555    0.1381 C   0  0  0  0  0  0  0  0  0  0  0  0
  -87.9460   27.8307   -0.1091 C   0  0  0  0  0  0  0  0  0  0  0  0
  -89.2700   27.5042    0.3518 N   0  0  0  0  0  0  0  0  0  0  0  0
  -89.2153   27.4207    1.8030 C   0  0  0  0  0  0  0  0  0  0  0  0
  -90.5892   27.8612    2.2822 C   0  0  0  0  0  0  0  0  0  0  0  0
  -90.9288   28.9347    1.2727 C   0  0  0  0  0  0  0  0  0  0  0  0
  -90.2684   28.4510    0.0019 C   0  0  0  0  0  0  0  0  0  0  0  0
  3  4  1  0  0  0
  4  5  2  0  0  0
  5  6  1  0  0  0
  6  7  2  0  0  0
  7  8  1  0  0  0
  8  9  2  0  0  0
  7  1  1  0  0  0
  1  2  2  0  0  0
  1 11  1  0  0  0
 11 12  1  0  0  0
 12 13  1  0  0  0
 13 14  1  0  0  0
 14 15  1  0  0  0
 15 16  1  0  0  0
 16 17  1  0  0  0
  9  4  1  0  0  0
 17 13  1  0  0  0
  3 10  1  0  0  0
M  END
> <minimizedAffinity>
-5.93851

> <CNNscore>
0.6808167100

> <CNNaffinity>
5.1194639206

> <CNN_VS>
3.4854166508

> <CNNaffinity_variance>
0.2216516435

$$$$
[H]Oc1nc([H])c(C(=O)C([H])([H])C([H])([H])N2C([H])([H])C([H])([H])C([H])([H])C2([H])[H])c([H])c1[H]


 17 18  0  0  0  0  0  0  0  0999 V2000
  -85.6229   31.0133    0.4152 C   0  0  0  0  0  0  0  0  0  0  0  0
  -85.0350   32.1367    0.3349 O   0  0  0  0  0  0  0  0  0  0  0  0
  -83.0283   26.9227    3.2883 O   0  0  0  0  0  0  0  0  0  0  0  0
  -83.6538   27.9508    2.5718 C   0  0  0  0  0  0  0  0  0  0  0  0
  -82.9290   29.0126    2.1177 C   0  0  0  0  0  0  0  0  0  0  0  0
  -83.5938   29.9956    1.4186 C   0  0  0  0  0  0  0  0  0  0  0  0
  -84.9423   29.9512    1.1626 C   0  0  0  0  0  0  0  0  0  0  0  0
  -85.6371   28.8594    1.6402 C   0  0  0  0  0  0  0  0  0  0  0  0
  -84.9798   27.8889    2.3306 N   0  0  0  0  0  0  0  0  0  0  0  0
  -82.3527   27.0825    4.0117 H   0  0  0  0  0  0  0  0  0  0  0  0
  -86.9476   30.7764   -0.2199 C   0  0  0  0  0  0  0  0  0  0  0  0
  -87.4751   32.0963   -0.6883 C   0  0  0  0  0  0  0  0  0  0  0  0
  -88.1937   32.0203   -1.9333 N   0  0  0  0  0  0  0  0  0  0  0  0
  -87.3287   32.5671   -2.9669 C   0  0  0  0  0  0  0  0  0  0  0  0
  -87.6907   31.8103   -4.2348 C   0  0  0  0  0  0  0  0  0  0  0  0
  -87.9835   30.4314   -3.6875 C   0  0  0  0  0  0  0  0  0  0  0  0
  -88.5681   30.7068   -2.3209 C   0  0  0  0  0  0  0  0  0  0  0  0
  3  4  1  0  0  0
  4  5  2  0  0  0
  5  6  1  0  0  0
  6  7  2  0  0  0
  7  8  1  0  0  0
  8  9  2  0  0  0
  7  1  1  0  0  0
  1  2  2  0  0  0
  1 11  1  0  0  0
 11 12  1  0  0  0
 12 13  1  0  0  0
 13 14  1  0  0  0
 14 15  1  0  0  0
 15 16  1  0  0  0
 16 17  1  0  0  0
  9  4  1  0  0  0
 17 13  1  0  0  0
  3 10  1  0  0  0
M  END
> <minimizedAffinity>
-6.97912

> <CNNscore>
0.6606162190

> <CNNaffinity>
5.1790723801

> <CNN_VS>
3.4213793278

> <CNNaffinity_variance>
0.1794495732

$$$$
[H]Oc1nc([H])c(C(=O)C([H])([H])C([H])([H])N2C([H])([H])C([H])([H])C([H])([H])C2([H])[H])c([H])c1[H]


 17 18  0  0  0  0  0  0  0  0999 V2000
  -84.7424   28.7060    2.3617 C   0  0  0  0  0  0  0  0  0  0  0  0
  -83.8910   28.0159    3.0044 O   0  0  0  0  0  0  0  0  0  0  0  0
  -82.8906   33.3350   -0.2580 O   0  0  0  0  0  0  0  0  0  0  0  0
  -83.3297   32.1768    0.3958 C   0  0  0  0  0  0  0  0  0  0  0  0
  -82.4297   31.2527    0.8373 C   0  0  0  0  0  0  0  0  0  0  0  0
  -82.9155   30.1322    1.4739 C   0  0  0  0  0  0  0  0  0  0  0  0
  -84.2547   29.9092    1.6803 C   0  0  0  0  0  0  0  0  0  0  0  0
  -85.1304   30.8695    1.2177 C   0  0  0  0  0  0  0  0  0  0  0  0
  -84.6498   31.9760    0.5890 N   0  0  0  0  0  0  0  0  0  0  0  0
  -82.1755   33.3376   -0.9607 H   0  0  0  0  0  0  0  0  0  0  0  0
  -86.1771   28.3164    2.2977 C   0  0  0  0  0  0  0  0  0  0  0  0
  -86.2529   26.9335    1.7308 C   0  0  0  0  0  0  0  0  0  0  0  0
  -87.2761   26.7763    0.7307 N   0  0  0  0  0  0  0  0  0  0  0  0
  -88.4559   26.2476    1.3972 C   0  0  0  0  0  0  0  0  0  0  0  0
  -89.6387   26.8077    0.6236 C   0  0  0  0  0  0  0  0  0  0  0  0
  -89.1307   28.1831    0.2537 C   0  0  0  0  0  0  0  0  0  0  0  0
  -87.6448   27.9765    0.0679 C   0  0  0  0  0  0  0  0  0  0  0  0
  3  4  1  0  0  0
  4  5  2  0  0  0
  5  6  1  0  0  0
  6  7  2  0  0  0
  7  8  1  0  0  0
  8  9  2  0  0  0
  7  1  1  0  0  0
  1  2  2  0  0  0
  1 11  1  0  0  0
 11 12  1  0  0  0
 12 13  1  0  0  0
 13 14  1  0  0  0
 14 15  1  0  0  0
 15 16  1  0  0  0
 16 17  1  0  0  0
  9  4  1  0  0  0
 17 13  1  0  0  0
  3 10  1  0  0  0
M  END
> <minimizedAffinity>
-6.55912

> <CNNscore>
0.6403933167

> <CNNaffinity>
5.3958125114

> <CNN_VS>
3.4554421902

> <CNNaffinity_variance>
0.2800666392

$$$$
[H]Oc1nc([H])c(C(=O)C([H])([H])C([H])([H])N2C([H])([H])C([H])([H])C([H])([H])C2([H])[H])c([H])c1[H]


 17 18  0  0  0  0  0  0  0  0999 V2000
  -85.5919   31.0430    0.7632 C   0  0  0  0  0  0  0  0  0  0  0  0
  -85.0735   32.2022    0.8061 O   0  0  0  0  0  0  0  0  0  0  0  0
  -82.7709   26.8438    3.2388 O   0  0  0  0  0  0  0  0  0  0  0  0
  -83.4528   27.8984    2.6187 C   0  0  0  0  0  0  0  0  0  0  0  0
  -82.7614   28.9442    2.0828 C   0  0  0  0  0  0  0  0  0  0  0  0
  -83.4813   29.9545    1.4847 C   0  0  0  0  0  0  0  0  0  0  0  0
  -84.8524   29.9526    1.4065 C   0  0  0  0  0  0  0  0  0  0  0  0
  -85.5120   28.8756    1.9615 C   0  0  0  0  0  0  0  0  0  0  0  0
  -84.8002   27.8780    2.5521 N   0  0  0  0  0  0  0  0  0  0  0  0
  -82.0023   26.9751    3.8690 H   0  0  0  0  0  0  0  0  0  0  0  0
  -86.8953   30.7935    0.0902 C   0  0  0  0  0  0  0  0  0  0  0  0
  -86.6517   29.8544   -1.0493 C   0  0  0  0  0  0  0  0  0  0  0  0
  -87.6007   28.7743   -1.1184 N   0  0  0  0  0  0  0  0  0  0  0  0
  -88.6788   29.0849   -0.1927 C   0  0  0  0  0  0  0  0  0  0  0  0
  -89.9241   28.4628   -0.8038 C   0  0  0  0  0  0  0  0  0  0  0  0
  -89.6714   28.6741   -2.2797 C   0  0  0  0  0  0  0  0  0  0  0  0
  -88.1686   28.5672   -2.4031 C   0  0  0  0  0  0  0  0  0  0  0  0
  3  4  1  0  0  0
  4  5  2  0  0  0
  5  6  1  0  0  0
  6  7  2  0  0  0
  7  8  1  0  0  0
  8  9  2  0  0  0
  7  1  1  0  0  0
  1  2  2  0  0  0
  1 11  1  0  0  0
 11 12  1  0  0  0
 12 13  1  0  0  0
 13 14  1  0  0  0
 14 15  1  0  0  0
 15 16  1  0  0  0
 16 17  1  0  0  0
  9  4  1  0  0  0
 17 13  1  0  0  0
  3 10  1  0  0  0
M  END
> <minimizedAffinity>
-6.47465

> <CNNscore>
0.6345884800

> <CNNaffinity>
5.3884477615

> <CNN_VS>
3.4194469452

> <CNNaffinity_variance>
0.2328577042

$$$$
[H]Oc1nc([H])c(C(=O)C([H])([H])C([H])([H])N2C([H])([H])C([H])([H])C([H])([H])C2([H])[H])c([H])c1[H]


 17 18  0  0  0  0  0  0  0  0999 V2000
  -84.9656   28.7767    2.2978 C   0  0  0  0  0  0  0  0  0  0  0  0
  -84.1740   28.0810    3.0075 O   0  0  0  0  0  0  0  0  0  0  0  0
  -82.8560   33.3491   -0.2245 O   0  0  0  0  0  0  0  0  0  0  0  0
  -83.3596   32.2038    0.4050 C   0  0  0  0  0  0  0  0  0  0  0  0
  -82.5126   31.2238    0.8306 C   0  0  0  0  0  0  0  0  0  0  0  0
  -83.0608   30.1190    1.4435 C   0  0  0  0  0  0  0  0  0  0  0  0
  -84.4109   29.9649    1.6418 C   0  0  0  0  0  0  0  0  0  0  0  0
  -85.2316   30.9801    1.1959 C   0  0  0  0  0  0  0  0  0  0  0  0
  -84.6894   32.0711    0.5905 N   0  0  0  0  0  0  0  0  0  0  0  0
  -82.1390   33.3268   -0.9251 H   0  0  0  0  0  0  0  0  0  0  0  0
  -86.3979   28.4081    2.1338 C   0  0  0  0  0  0  0  0  0  0  0  0
  -86.4899   27.4022    1.0295 C   0  0  0  0  0  0  0  0  0  0  0  0
  -87.4057   27.7768   -0.0160 N   0  0  0  0  0  0  0  0  0  0  0  0
  -88.3978   28.6621    0.5738 C   0  0  0  0  0  0  0  0  0  0  0  0
  -88.8053   29.6090   -0.5436 C   0  0  0  0  0  0  0  0  0  0  0  0
  -87.4950   29.7889   -1.2768 C   0  0  0  0  0  0  0  0  0  0  0  0
  -86.8077   28.4526   -1.1120 C   0  0  0  0  0  0  0  0  0  0  0  0
  3  4  1  0  0  0
  4  5  2  0  0  0
  5  6  1  0  0  0
  6  7  2  0  0  0
  7  8  1  0  0  0
  8  9  2  0  0  0
  7  1  1  0  0  0
  1  2  2  0  0  0
  1 11  1  0  0  0
 11 12  1  0  0  0
 12 13  1  0  0  0
 13 14  1  0  0  0
 14 15  1  0  0  0
 15 16  1  0  0  0
 16 17  1  0  0  0
  9  4  1  0  0  0
 17 13  1  0  0  0
  3 10  1  0  0  0
M  END
> <minimizedAffinity>
-6.52158

> <CNNscore>
0.5956370831

> <CNNaffinity>
5.3306856155

> <CNN_VS>
3.1751539707

> <CNNaffinity_variance>
0.4722184241

$$$$
[H]Oc1nc([H])c(C(=O)C([H])([H])C([H])([H])N2C([H])([H])C([H])([H])C([H])([H])C2([H])[H])c([H])c1[H]


 17 18  0  0  0  0  0  0  0  0999 V2000
  -85.5677   27.8047    1.9355 C   0  0  0  0  0  0  0  0  0  0  0  0
  -84.9533   26.7554    2.3041 O   0  0  0  0  0  0  0  0  0  0  0  0
  -82.4504   32.1863    0.2612 O   0  0  0  0  0  0  0  0  0  0  0  0
  -83.2084   31.0896    0.6905 C   0  0  0  0  0  0  0  0  0  0  0  0
  -82.6822   30.1921    1.5716 C   0  0  0  0  0  0  0  0  0  0  0  0
  -83.4707   29.1321    1.9608 C   0  0  0  0  0  0  0  0  0  0  0  0
  -84.7516   28.9435    1.5030 C   0  0  0  0  0  0  0  0  0  0  0  0
  -85.2446   29.8751    0.6130 C   0  0  0  0  0  0  0  0  0  0  0  0
  -84.4651   30.9218    0.2291 N   0  0  0  0  0  0  0  0  0  0  0  0
  -81.4853   32.1239   -0.0032 H   0  0  0  0  0  0  0  0  0  0  0  0
  -87.0536   27.8832    1.9393 C   0  0  0  0  0  0  0  0  0  0  0  0
  -87.5859   26.5048    2.1770 C   0  0  0  0  0  0  0  0  0  0  0  0
  -88.9608   26.4839    2.6028 N   0  0  0  0  0  0  0  0  0  0  0  0
  -89.0764   25.4756    3.6448 C   0  0  0  0  0  0  0  0  0  0  0  0
  -90.1777   25.9751    4.5661 C   0  0  0  0  0  0  0  0  0  0  0  0
  -89.9460   27.4690    4.5277 C   0  0  0  0  0  0  0  0  0  0  0  0
  -89.4368   27.7150    3.1258 C   0  0  0  0  0  0  0  0  0  0  0  0
  3  4  1  0  0  0
  4  5  2  0  0  0
  5  6  1  0  0  0
  6  7  2  0  0  0
  7  8  1  0  0  0
  8  9  2  0  0  0
  7  1  1  0  0  0
  1  2  2  0  0  0
  1 11  1  0  0  0
 11 12  1  0  0  0
 12 13  1  0  0  0
 13 14  1  0  0  0
 14 15  1  0  0  0
 15 16  1  0  0  0
 16 17  1  0  0  0
  9  4  1  0  0  0
 17 13  1  0  0  0
  3 10  1  0  0  0
M  END
> <minimizedAffinity>
-6.71083

> <CNNscore>
0.5690214038

> <CNNaffinity>
4.9976639748

> <CNN_VS>
2.8437776566

> <CNNaffinity_variance>
0.2599114478

$$$$
[H]Oc1nc([H])c(C(=O)C([H])([H])C([H])([H])N2C([H])([H])C([H])([H])C([H])([H])C2([H])[H])c([H])c1[H]


 17 18  0  0  0  0  0  0  0  0999 V2000
  -85.9599   30.5344    0.2645 C   0  0  0  0  0  0  0  0  0  0  0  0
  -85.5452   31.7337    0.2025 O   0  0  0  0  0  0  0  0  0  0  0  0
  -82.9367   26.8944    3.3191 O   0  0  0  0  0  0  0  0  0  0  0  0
  -83.6709   27.8139    2.5594 C   0  0  0  0  0  0  0  0  0  0  0  0
  -83.1112   28.9992    2.1844 C   0  0  0  0  0  0  0  0  0  0  0  0
  -83.8773   29.8667    1.4380 C   0  0  0  0  0  0  0  0  0  0  0  0
  -85.1683   29.5905    1.0596 C   0  0  0  0  0  0  0  0  0  0  0  0
  -85.6954   28.3803    1.4603 C   0  0  0  0  0  0  0  0  0  0  0  0
  -84.9379   27.5239    2.1976 N   0  0  0  0  0  0  0  0  0  0  0  0
  -82.3668   27.1524    4.1026 H   0  0  0  0  0  0  0  0  0  0  0  0
  -87.1968   30.0971   -0.4377 C   0  0  0  0  0  0  0  0  0  0  0  0
  -88.1647   31.2384   -0.4171 C   0  0  0  0  0  0  0  0  0  0  0  0
  -89.5057   30.8629   -0.7815 N   0  0  0  0  0  0  0  0  0  0  0  0
  -89.4486   30.2974   -2.1204 C   0  0  0  0  0  0  0  0  0  0  0  0
  -90.5600   29.2610   -2.1659 C   0  0  0  0  0  0  0  0  0  0  0  0
  -90.5160   28.7124   -0.7574 C   0  0  0  0  0  0  0  0  0  0  0  0
  -90.1054   29.9042    0.0769 C   0  0  0  0  0  0  0  0  0  0  0  0
  3  4  1  0  0  0
  4  5  2  0  0  0
  5  6  1  0  0  0
  6  7  2  0  0  0
  7  8  1  0  0  0
  8  9  2  0  0  0
  7  1  1  0  0  0
  1  2  2  0  0  0
  1 11  1  0  0  0
 11 12  1  0  0  0
 12 13  1  0  0  0
 13 14  1  0  0  0
 14 15  1  0  0  0
 15 16  1  0  0  0
 16 17  1  0  0  0
  9  4  1  0  0  0
 17 13  1  0  0  0
  3 10  1  0  0  0
M  END
> <minimizedAffinity>
-6.19731

> <CNNscore>
0.5677331090

> <CNNaffinity>
5.2103600502

> <CNN_VS>
2.9580938816

> <CNNaffinity_variance>
0.2788439691

$$$$
[H]Oc1nc([H])c(C(=O)C([H])([H])C([H])([H])N2C([H])([H])C([H])([H])C([H])([H])C2([H])[H])c([H])c1[H]


 17 18  0  0  0  0  0  0  0  0999 V2000
  -85.1476   27.9239    2.0107 C   0  0  0  0  0  0  0  0  0  0  0  0
  -84.4238   26.9741    2.4445 O   0  0  0  0  0  0  0  0  0  0  0  0
  -82.4893   32.5521    0.2126 O   0  0  0  0  0  0  0  0  0  0  0  0
  -83.1690   31.4078    0.6487 C   0  0  0  0  0  0  0  0  0  0  0  0
  -84.4653   31.1962    0.2830 C   0  0  0  0  0  0  0  0  0  0  0  0
  -85.0862   30.0548    0.7397 C   0  0  0  0  0  0  0  0  0  0  0  0
  -84.4604   29.1305    1.5397 C   0  0  0  0  0  0  0  0  0  0  0  0
  -83.1493   29.3838    1.8857 C   0  0  0  0  0  0  0  0  0  0  0  0
  -82.5367   30.5114    1.4343 N   0  0  0  0  0  0  0  0  0  0  0  0
  -82.8935   33.4696    0.2095 H   0  0  0  0  0  0  0  0  0  0  0  0
  -86.6319   27.8244    1.9784 C   0  0  0  0  0  0  0  0  0  0  0  0
  -87.0019   26.8105    0.9417 C   0  0  0  0  0  0  0  0  0  0  0  0
  -87.9225   27.3074   -0.0471 N   0  0  0  0  0  0  0  0  0  0  0  0
  -88.4575   28.5645    0.4520 C   0  0  0  0  0  0  0  0  0  0  0  0
  -88.7354   29.4020   -0.7860 C   0  0  0  0  0  0  0  0  0  0  0  0
  -87.5903   28.9954   -1.6861 C   0  0  0  0  0  0  0  0  0  0  0  0
  -87.3472   27.5484   -1.3225 C   0  0  0  0  0  0  0  0  0  0  0  0
  3  4  1  0  0  0
  4  5  2  0  0  0
  5  6  1  0  0  0
  6  7  2  0  0  0
  7  8  1  0  0  0
  8  9  2  0  0  0
  7  1  1  0  0  0
  1  2  2  0  0  0
  1 11  1  0  0  0
 11 12  1  0  0  0
 12 13  1  0  0  0
 13 14  1  0  0  0
 14 15  1  0  0  0
 15 16  1  0  0  0
 16 17  1  0  0  0
  9  4  1  0  0  0
 17 13  1  0  0  0
  3 10  1  0  0  0
M  END
> <minimizedAffinity>
-6.14431

> <CNNscore>
0.5457061529

> <CNNaffinity>
5.3165993690

> <CNN_VS>
2.9013009071

> <CNNaffinity_variance>
0.3952685297

$$$$
[H]N=C(N([H])[H])N([H])C([H])([H])C([H])([H])C([H])([H])[C@@]([H])(C(=O)N([H])[C@]([H])(C([H])=O)C([H])([H])c1c([H])c([H])c([H])c([H])c1[H])N([H])C(=O)[C@@]([H])(N([H])C(=O)OC(C([H])([H])[H])(C([H])([H])[H])C([H])([H])[H])C([H])([H])c1c([H])c([H])c([H])c([H])c1[H]


 47 48  0  0  0  0  0  0  0  0999 V2000
  -89.1800   27.5019   -2.2581 C   0  0  0  0  0  0  0  0  0  0  0  0
  -87.6067   27.9680   -0.3919 C   0  0  0  0  0  0  0  0  0  0  0  0
  -86.7539   28.3696   -1.2396 O   0  0  0  0  0  0  0  0  0  0  0  0
  -88.8811   27.5061   -0.8043 N   0  0  0  0  0  0  0  0  0  0  0  0
  -89.6342   27.1626   -0.1905 H   0  0  0  0  0  0  0  0  0  0  0  0
  -87.2095   27.9942    1.0240 C   0  0  0  0  0  0  0  0  0  0  0  0
  -88.4507   26.6986    2.7542 C   0  0  0  0  0  0  0  0  0  0  0  0
  -88.9223   27.7676    3.2773 O   0  0  0  0  0  0  0  0  0  0  0  0
  -87.6017   26.7072    1.6461 N   0  0  0  0  0  0  0  0  0  0  0  0
  -87.2287   25.8537    1.2320 H   0  0  0  0  0  0  0  0  0  0  0  0
  -88.8645   25.5327    3.3935 O   0  0  0  0  0  0  0  0  0  0  0  0
  -90.2985   23.6073    3.7449 C   0  0  0  0  0  0  0  0  0  0  0  0
  -90.1772   25.0667    3.4007 C   0  0  0  0  0  0  0  0  0  0  0  0
  -90.9432   25.8320    4.4772 C   0  0  0  0  0  0  0  0  0  0  0  0
  -90.8556   25.3909    2.0851 C   0  0  0  0  0  0  0  0  0  0  0  0
  -85.7354   28.0713    1.1745 C   0  0  0  0  0  0  0  0  0  0  0  0
  -85.0876   29.3230    1.4704 C   0  0  0  0  0  0  0  0  0  0  0  0
  -84.0677   29.7643    0.6181 C   0  0  0  0  0  0  0  0  0  0  0  0
  -83.4034   30.9346    0.8760 C   0  0  0  0  0  0  0  0  0  0  0  0
  -83.7545   31.6655    1.9803 C   0  0  0  0  0  0  0  0  0  0  0  0
  -84.7645   31.2394    2.8321 C   0  0  0  0  0  0  0  0  0  0  0  0
  -85.4400   30.0720    2.5916 C   0  0  0  0  0  0  0  0  0  0  0  0
  -89.8353   28.7171   -2.6997 C   0  0  0  0  0  0  0  0  0  0  0  0
  -91.0793   28.7170   -2.8782 O   0  0  0  0  0  0  0  0  0  0  0  0
  -89.1675   29.9476   -2.9516 N   0  0  0  0  0  0  0  0  0  0  0  0
  -88.1376   29.9921   -2.8021 H   0  0  0  0  0  0  0  0  0  0  0  0
  -89.8330   31.1389   -3.3898 C   0  0  0  0  0  0  0  0  0  0  0  0
  -89.3046   31.7071   -4.6428 C   0  0  0  0  0  0  0  0  0  0  0  0
  -88.5141   31.1320   -5.3505 O   0  0  0  0  0  0  0  0  0  0  0  0
  -89.8180   32.2271   -2.3333 C   0  0  0  0  0  0  0  0  0  0  0  0
  -88.4839   32.5289   -1.8161 C   0  0  0  0  0  0  0  0  0  0  0  0
  -87.9700   31.7909   -0.7763 C   0  0  0  0  0  0  0  0  0  0  0  0
  -86.7286   32.0235   -0.2465 C   0  0  0  0  0  0  0  0  0  0  0  0
  -85.9742   33.0449   -0.7903 C   0  0  0  0  0  0  0  0  0  0  0  0
  -86.4862   33.7822   -1.8283 C   0  0  0  0  0  0  0  0  0  0  0  0
  -87.7201   33.5389   -2.3430 C   0  0  0  0  0  0  0  0  0  0  0  0
  -90.0653   26.2549   -2.4007 C   0  0  0  0  0  0  0  0  0  0  0  0
  -90.1568   25.4208   -1.1816 C   0  0  0  0  0  0  0  0  0  0  0  0
  -89.7631   23.9970   -1.5902 C   0  0  0  0  0  0  0  0  0  0  0  0
  -89.1716   23.3409   -0.4677 N   0  0  0  0  0  0  0  0  0  0  0  0
  -88.3821   23.8055    0.0721 H   0  0  0  0  0  0  0  0  0  0  0  0
  -89.6523   22.0549   -0.0792 C   0  0  0  0  0  0  0  0  0  0  0  0
  -88.7790   21.1210    0.4990 N   0  0  0  0  0  0  0  0  0  0  0  0
  -90.9026   21.7672   -0.2692 N   0  0  0  0  0  0  0  0  0  0  0  0
  -88.9719   20.1010    0.4722 H   0  0  0  0  0  0  0  0  0  0  0  0
  -87.9089   21.4371    0.9729 H   0  0  0  0  0  0  0  0  0  0  0  0
  -91.5604   22.4415   -0.6931 H   0  0  0  0  0  0  0  0  0  0  0  0
 12 13  1  0  0  0
 13 14  1  0  0  0
 13 15  1  0  0  0
 13 11  1  0  0  0
 11  7  1  0  0  0
  7  8  2  0  0  0
  7  9  1  0  0  0
  9  6  1  0  0  0
  6 16  1  0  0  0
 16 17  1  0  0  0
 17 18  2  0  0  0
 18 19  1  0  0  0
 19 20  2  0  0  0
 20 21  1  0  0  0
 21 22  2  0  0  0
  6  2  1  0  0  0
  2  3  2  0  0  0
  2  4  1  0  0  0
  4  1  1  0  0  0
  1 37  1  0  0  0
 37 38  1  0  0  0
 38 39  1  0  0  0
 39 40  1  0  0  0
 40 42  1  0  0  0
 42 43  1  0  0  0
 42 44  2  0  0  0
  1 23  1  0  0  0
 23 24  2  0  0  0
 23 25  1  0  0  0
 25 27  1  0  0  0
 27 30  1  0  0  0
 30 31  1  0  0  0
 31 32  2  0  0  0
 32 33  1  0  0  0
 33 34  2  0  0  0
 34 35  1  0  0  0
 35 36  2  0  0  0
 27 28  1  0  0  0
 28 29  2  0  0  0
 22 17  1  0  0  0
 36 31  1  0  0  0
  9 10  1  0  0  0
  4  5  1  0  0  0
 40 41  1  0  0  0
 43 45  1  0  0  0
 43 46  1  0  0  0
 44 47  1  0  0  0
 25 26  1  0  0  0
M  END
> <minimizedAffinity>
-8.57173

> <CNNscore>
0.2293007970

> <CNNaffinity>
6.8718657494

> <CNN_VS>
1.5757242441

> <CNNaffinity_variance>
0.2195265293

$$$$
[H]N=C(N([H])[H])N([H])C([H])([H])C([H])([H])C([H])([H])[C@@]([H])(C(=O)N([H])[C@]([H])(C([H])=O)C([H])([H])c1c([H])c([H])c([H])c([H])c1[H])N([H])C(=O)[C@@]([H])(N([H])C(=O)OC(C([H])([H])[H])(C([H])([H])[H])C([H])([H])[H])C([H])([H])c1c([H])c([H])c([H])c([H])c1[H]


 47 48  0  0  0  0  0  0  0  0999 V2000
  -90.4555   30.4232   -1.4015 C   0  0  0  0  0  0  0  0  0  0  0  0
  -88.8901   32.3532   -1.4078 C   0  0  0  0  0  0  0  0  0  0  0  0
  -89.4427   32.7772   -0.3485 O   0  0  0  0  0  0  0  0  0  0  0  0
  -89.3276   31.1568   -2.0281 N   0  0  0  0  0  0  0  0  0  0  0  0
  -88.9411   30.7372   -2.8862 H   0  0  0  0  0  0  0  0  0  0  0  0
  -87.7923   33.1602   -1.9616 C   0  0  0  0  0  0  0  0  0  0  0  0
  -85.6435   32.9184   -0.7217 C   0  0  0  0  0  0  0  0  0  0  0  0
  -85.8924   33.9492   -0.0044 O   0  0  0  0  0  0  0  0  0  0  0  0
  -86.5147   32.4527   -1.7082 N   0  0  0  0  0  0  0  0  0  0  0  0
  -86.3132   31.6311   -2.2769 H   0  0  0  0  0  0  0  0  0  0  0  0
  -84.4269   32.3097   -0.4243 O   0  0  0  0  0  0  0  0  0  0  0  0
  -85.0073   30.0121    0.0962 C   0  0  0  0  0  0  0  0  0  0  0  0
  -84.2747   31.2667    0.4864 C   0  0  0  0  0  0  0  0  0  0  0  0
  -82.7926   30.9040    0.5442 C   0  0  0  0  0  0  0  0  0  0  0  0
  -84.6538   31.7275    1.8792 C   0  0  0  0  0  0  0  0  0  0  0  0
  -87.8926   33.2759   -3.4374 C   0  0  0  0  0  0  0  0  0  0  0  0
  -88.4242   34.4655   -4.0507 C   0  0  0  0  0  0  0  0  0  0  0  0
  -87.9482   34.8340   -5.3152 C   0  0  0  0  0  0  0  0  0  0  0  0
  -88.4037   35.9734   -5.9250 C   0  0  0  0  0  0  0  0  0  0  0  0
  -89.3327   36.7446   -5.2775 C   0  0  0  0  0  0  0  0  0  0  0  0
  -89.8132   36.3893   -4.0244 C   0  0  0  0  0  0  0  0  0  0  0  0
  -89.3698   35.2544   -3.3982 C   0  0  0  0  0  0  0  0  0  0  0  0
  -90.0238   29.5189   -0.3541 C   0  0  0  0  0  0  0  0  0  0  0  0
  -90.6024   29.5460    0.7611 O   0  0  0  0  0  0  0  0  0  0  0  0
  -88.9706   28.5723   -0.4894 N   0  0  0  0  0  0  0  0  0  0  0  0
  -88.4751   28.5097   -1.4034 H   0  0  0  0  0  0  0  0  0  0  0  0
  -88.5568   27.6873    0.5592 C   0  0  0  0  0  0  0  0  0  0  0  0
  -87.2382   27.0641    0.3466 C   0  0  0  0  0  0  0  0  0  0  0  0
  -86.5019   26.7458    1.2483 O   0  0  0  0  0  0  0  0  0  0  0  0
  -89.5665   26.5839    0.8116 C   0  0  0  0  0  0  0  0  0  0  0  0
  -89.9059   26.4063    2.2228 C   0  0  0  0  0  0  0  0  0  0  0  0
  -89.6415   27.4120    3.1219 C   0  0  0  0  0  0  0  0  0  0  0  0
  -89.9342   27.3078    4.4559 C   0  0  0  0  0  0  0  0  0  0  0  0
  -90.5190   26.1379    4.9004 C   0  0  0  0  0  0  0  0  0  0  0  0
  -90.7834   25.1334    4.0036 C   0  0  0  0  0  0  0  0  0  0  0  0
  -90.4869   25.2522    2.6828 C   0  0  0  0  0  0  0  0  0  0  0  0
  -91.0755   29.6978   -2.6052 C   0  0  0  0  0  0  0  0  0  0  0  0
  -92.0611   30.4975   -3.3664 C   0  0  0  0  0  0  0  0  0  0  0  0
  -91.5262   30.6109   -4.7983 C   0  0  0  0  0  0  0  0  0  0  0  0
  -91.0616   31.9443   -5.0137 N   0  0  0  0  0  0  0  0  0  0  0  0
  -90.0406   32.1912   -4.8488 H   0  0  0  0  0  0  0  0  0  0  0  0
  -91.9832   32.9411   -5.4526 C   0  0  0  0  0  0  0  0  0  0  0  0
  -92.4177   32.9611   -6.7867 N   0  0  0  0  0  0  0  0  0  0  0  0
  -92.4088   33.8224   -4.6013 N   0  0  0  0  0  0  0  0  0  0  0  0
  -92.7840   33.8254   -7.2306 H   0  0  0  0  0  0  0  0  0  0  0  0
  -92.3812   32.0976   -7.3651 H   0  0  0  0  0  0  0  0  0  0  0  0
  -92.1004   33.8236   -3.6155 H   0  0  0  0  0  0  0  0  0  0  0  0
 12 13  1  0  0  0
 13 14  1  0  0  0
 13 15  1  0  0  0
 13 11  1  0  0  0
 11  7  1  0  0  0
  7  8  2  0  0  0
  7  9  1  0  0  0
  9  6  1  0  0  0
  6 16  1  0  0  0
 16 17  1  0  0  0
 17 18  2  0  0  0
 18 19  1  0  0  0
 19 20  2  0  0  0
 20 21  1  0  0  0
 21 22  2  0  0  0
  6  2  1  0  0  0
  2  3  2  0  0  0
  2  4  1  0  0  0
  4  1  1  0  0  0
  1 37  1  0  0  0
 37 38  1  0  0  0
 38 39  1  0  0  0
 39 40  1  0  0  0
 40 42  1  0  0  0
 42 43  1  0  0  0
 42 44  2  0  0  0
  1 23  1  0  0  0
 23 24  2  0  0  0
 23 25  1  0  0  0
 25 27  1  0  0  0
 27 30  1  0  0  0
 30 31  1  0  0  0
 31 32  2  0  0  0
 32 33  1  0  0  0
 33 34  2  0  0  0
 34 35  1  0  0  0
 35 36  2  0  0  0
 27 28  1  0  0  0
 28 29  2  0  0  0
 22 17  1  0  0  0
 36 31  1  0  0  0
  9 10  1  0  0  0
  4  5  1  0  0  0
 40 41  1  0  0  0
 43 45  1  0  0  0
 43 46  1  0  0  0
 44 47  1  0  0  0
 25 26  1  0  0  0
M  END
> <minimizedAffinity>
-7.02263

> <CNNscore>
0.2201970518

> <CNNaffinity>
6.3878116608

> <CNN_VS>
1.4065773487

> <CNNaffinity_variance>
0.3623638153

$$$$
[H]N=C(N([H])[H])N([H])C([H])([H])C([H])([H])C([H])([H])[C@@]([H])(C(=O)N([H])[C@]([H])(C([H])=O)C([H])([H])c1c([H])c([H])c([H])c([H])c1[H])N([H])C(=O)[C@@]([H])(N([H])C(=O)OC(C([H])([H])[H])(C([H])([H])[H])C([H])([H])[H])C([H])([H])c1c([H])c([H])c([H])c([H])c1[H]


 47 48  0  0  0  0  0  0  0  0999 V2000
  -90.1538   30.7047   -1.0359 C   0  0  0  0  0  0  0  0  0  0  0  0
  -88.1616   32.1880   -1.1166 C   0  0  0  0  0  0  0  0  0  0  0  0
  -88.8129   33.0622   -0.4695 O   0  0  0  0  0  0  0  0  0  0  0  0
  -88.7508   30.9449   -1.4562 N   0  0  0  0  0  0  0  0  0  0  0  0
  -88.3011   30.1781   -1.9773 H   0  0  0  0  0  0  0  0  0  0  0  0
  -86.7837   32.5273   -1.5032 C   0  0  0  0  0  0  0  0  0  0  0  0
  -87.3591   33.5462   -3.7041 C   0  0  0  0  0  0  0  0  0  0  0  0
  -87.8261   32.4380   -4.1429 O   0  0  0  0  0  0  0  0  0  0  0  0
  -86.8260   33.6898   -2.4218 N   0  0  0  0  0  0  0  0  0  0  0  0
  -86.4556   34.5741   -2.0758 H   0  0  0  0  0  0  0  0  0  0  0  0
  -87.4343   34.5891   -4.6239 O   0  0  0  0  0  0  0  0  0  0  0  0
  -88.9372   35.9585   -5.9477 C   0  0  0  0  0  0  0  0  0  0  0  0
  -88.3979   35.5945   -4.5914 C   0  0  0  0  0  0  0  0  0  0  0  0
  -89.5833   35.0849   -3.7750 C   0  0  0  0  0  0  0  0  0  0  0  0
  -87.8654   36.8072   -3.8555 C   0  0  0  0  0  0  0  0  0  0  0  0
  -85.9857   32.9764   -0.3358 C   0  0  0  0  0  0  0  0  0  0  0  0
  -84.9909   32.1179    0.2533 C   0  0  0  0  0  0  0  0  0  0  0  0
  -83.6618   32.2494   -0.1682 C   0  0  0  0  0  0  0  0  0  0  0  0
  -82.6860   31.4347    0.3432 C   0  0  0  0  0  0  0  0  0  0  0  0
  -83.0324   30.4908    1.2739 C   0  0  0  0  0  0  0  0  0  0  0  0
  -84.3460   30.3514    1.7007 C   0  0  0  0  0  0  0  0  0  0  0  0
  -85.3358   31.1560    1.2009 C   0  0  0  0  0  0  0  0  0  0  0  0
  -90.3225   29.4461   -0.3368 C   0  0  0  0  0  0  0  0  0  0  0  0
  -91.4668   29.1085    0.0578 O   0  0  0  0  0  0  0  0  0  0  0  0
  -89.2691   28.5325   -0.0555 N   0  0  0  0  0  0  0  0  0  0  0  0
  -88.3077   28.7701   -0.3783 H   0  0  0  0  0  0  0  0  0  0  0  0
  -89.4555   27.2928    0.6391 C   0  0  0  0  0  0  0  0  0  0  0  0
  -89.6074   26.1185   -0.2387 C   0  0  0  0  0  0  0  0  0  0  0  0
  -88.6746   25.5415   -0.7419 O   0  0  0  0  0  0  0  0  0  0  0  0
  -90.6428   27.3355    1.5820 C   0  0  0  0  0  0  0  0  0  0  0  0
  -90.3276   26.9159    2.9469 C   0  0  0  0  0  0  0  0  0  0  0  0
  -89.9388   25.6202    3.1919 C   0  0  0  0  0  0  0  0  0  0  0  0
  -89.6308   25.1647    4.4463 C   0  0  0  0  0  0  0  0  0  0  0  0
  -89.7192   26.0560    5.4980 C   0  0  0  0  0  0  0  0  0  0  0  0
  -90.1072   27.3496    5.2545 C   0  0  0  0  0  0  0  0  0  0  0  0
  -90.4096   27.7863    4.0037 C   0  0  0  0  0  0  0  0  0  0  0  0
  -90.9037   30.7543   -2.3754 C   0  0  0  0  0  0  0  0  0  0  0  0
  -90.7919   29.5242   -3.1907 C   0  0  0  0  0  0  0  0  0  0  0  0
  -92.2162   28.9925   -3.3853 C   0  0  0  0  0  0  0  0  0  0  0  0
  -92.3904   27.8302   -2.5736 N   0  0  0  0  0  0  0  0  0  0  0  0
  -91.6835   27.5927   -1.8157 H   0  0  0  0  0  0  0  0  0  0  0  0
  -93.5239   26.9915   -2.7914 C   0  0  0  0  0  0  0  0  0  0  0  0
  -94.7005   27.1905   -2.0532 N   0  0  0  0  0  0  0  0  0  0  0  0
  -93.4470   26.0482   -3.6783 N   0  0  0  0  0  0  0  0  0  0  0  0
  -95.3952   26.4313   -1.9145 H   0  0  0  0  0  0  0  0  0  0  0  0
  -94.9028   28.1163   -1.6246 H   0  0  0  0  0  0  0  0  0  0  0  0
  -92.5897   25.8865   -4.2314 H   0  0  0  0  0  0  0  0  0  0  0  0
 12 13  1  0  0  0
 13 14  1  0  0  0
 13 15  1  0  0  0
 13 11  1  0  0  0
 11  7  1  0  0  0
  7  8  2  0  0  0
  7  9  1  0  0  0
  9  6  1  0  0  0
  6 16  1  0  0  0
 16 17  1  0  0  0
 17 18  2  0  0  0
 18 19  1  0  0  0
 19 20  2  0  0  0
 20 21  1  0  0  0
 21 22  2  0  0  0
  6  2  1  0  0  0
  2  3  2  0  0  0
  2  4  1  0  0  0
  4  1  1  0  0  0
  1 37  1  0  0  0
 37 38  1  0  0  0
 38 39  1  0  0  0
 39 40  1  0  0  0
 40 42  1  0  0  0
 42 43  1  0  0  0
 42 44  2  0  0  0
  1 23  1  0  0  0
 23 24  2  0  0  0
 23 25  1  0  0  0
 25 27  1  0  0  0
 27 30  1  0  0  0
 30 31  1  0  0  0
 31 32  2  0  0  0
 32 33  1  0  0  0
 33 34  2  0  0  0
 34 35  1  0  0  0
 35 36  2  0  0  0
 27 28  1  0  0  0
 28 29  2  0  0  0
 22 17  1  0  0  0
 36 31  1  0  0  0
  9 10  1  0  0  0
  4  5  1  0  0  0
 40 41  1  0  0  0
 43 45  1  0  0  0
 43 46  1  0  0  0
 44 47  1  0  0  0
 25 26  1  0  0  0
M  END
> <minimizedAffinity>
-7.52324

> <CNNscore>
0.2058863044

> <CNNaffinity>
6.4229111671

> <CNN_VS>
1.3223894835

> <CNNaffinity_variance>
0.2720668912

$$$$
[H]N=C(N([H])[H])N([H])C([H])([H])C([H])([H])C([H])([H])[C@@]([H])(C(=O)N([H])[C@]([H])(C([H])=O)C([H])([H])c1c([H])c([H])c([H])c([H])c1[H])N([H])C(=O)[C@@]([H])(N([H])C(=O)OC(C([H])([H])[H])(C([H])([H])[H])C([H])([H])[H])C([H])([H])c1c([H])c([H])c([H])c([H])c1[H]


 47 48  0  0  0  0  0  0  0  0999 V2000
  -90.3560   30.1039   -1.2376 C   0  0  0  0  0  0  0  0  0  0  0  0
  -88.9289   32.1381   -1.2684 C   0  0  0  0  0  0  0  0  0  0  0  0
  -89.6259   32.6152   -0.3230 O   0  0  0  0  0  0  0  0  0  0  0  0
  -89.2136   30.8597   -1.8091 N   0  0  0  0  0  0  0  0  0  0  0  0
  -88.7046   30.3930   -2.5739 H   0  0  0  0  0  0  0  0  0  0  0  0
  -87.8295   32.9712   -1.7785 C   0  0  0  0  0  0  0  0  0  0  0  0
  -85.6029   32.9015   -0.6603 C   0  0  0  0  0  0  0  0  0  0  0  0
  -85.7870   34.0511   -0.1278 O   0  0  0  0  0  0  0  0  0  0  0  0
  -86.5471   32.2881   -1.4856 N   0  0  0  0  0  0  0  0  0  0  0  0
  -86.3971   31.3723   -1.9073 H   0  0  0  0  0  0  0  0  0  0  0  0
  -84.3769   32.3250   -0.3382 O   0  0  0  0  0  0  0  0  0  0  0  0
  -84.8284   29.9731    0.0513 C   0  0  0  0  0  0  0  0  0  0  0  0
  -84.2205   31.2580    0.5436 C   0  0  0  0  0  0  0  0  0  0  0  0
  -82.7250   30.9965    0.7065 C   0  0  0  0  0  0  0  0  0  0  0  0
  -84.7381   31.6332    1.9174 C   0  0  0  0  0  0  0  0  0  0  0  0
  -87.8811   33.0956   -3.2561 C   0  0  0  0  0  0  0  0  0  0  0  0
  -88.3373   34.3109   -3.8797 C   0  0  0  0  0  0  0  0  0  0  0  0
  -87.7975   34.6667   -5.1220 C   0  0  0  0  0  0  0  0  0  0  0  0
  -88.1800   35.8285   -5.7396 C   0  0  0  0  0  0  0  0  0  0  0  0
  -89.0995   36.6348   -5.1219 C   0  0  0  0  0  0  0  0  0  0  0  0
  -89.6428   36.2925   -3.8911 C   0  0  0  0  0  0  0  0  0  0  0  0
  -89.2728   35.1355   -3.2575 C   0  0  0  0  0  0  0  0  0  0  0  0
  -89.9998   29.3694   -0.0398 C   0  0  0  0  0  0  0  0  0  0  0  0
  -90.8526   29.2259    0.8720 O   0  0  0  0  0  0  0  0  0  0  0  0
  -88.7281   28.7766    0.1944 N   0  0  0  0  0  0  0  0  0  0  0  0
  -87.9981   28.8620   -0.5437 H   0  0  0  0  0  0  0  0  0  0  0  0
  -88.3941   28.0552    1.3869 C   0  0  0  0  0  0  0  0  0  0  0  0
  -87.0482   27.4544    1.3797 C   0  0  0  0  0  0  0  0  0  0  0  0
  -86.8085   26.3701    0.9074 O   0  0  0  0  0  0  0  0  0  0  0  0
  -89.3987   26.9620    1.6975 C   0  0  0  0  0  0  0  0  0  0  0  0
  -89.5181   26.6581    3.1228 C   0  0  0  0  0  0  0  0  0  0  0  0
  -89.1764   25.4102    3.5873 C   0  0  0  0  0  0  0  0  0  0  0  0
  -89.2660   25.0625    4.9091 C   0  0  0  0  0  0  0  0  0  0  0  0
  -89.7201   26.0160    5.7995 C   0  0  0  0  0  0  0  0  0  0  0  0
  -90.0615   27.2621    5.3368 C   0  0  0  0  0  0  0  0  0  0  0  0
  -89.9669   27.5916    4.0219 C   0  0  0  0  0  0  0  0  0  0  0  0
  -90.7548   29.1913   -2.4069 C   0  0  0  0  0  0  0  0  0  0  0  0
  -89.9056   27.9901   -2.5692 C   0  0  0  0  0  0  0  0  0  0  0  0
  -90.8476   26.7810   -2.5759 C   0  0  0  0  0  0  0  0  0  0  0  0
  -90.4997   25.9181   -1.4921 N   0  0  0  0  0  0  0  0  0  0  0  0
  -91.0639   25.9323   -0.5910 H   0  0  0  0  0  0  0  0  0  0  0  0
  -89.3864   25.0369   -1.6326 C   0  0  0  0  0  0  0  0  0  0  0  0
  -89.5935   23.6808   -1.9279 N   0  0  0  0  0  0  0  0  0  0  0  0
  -88.1878   25.5093   -1.4832 N   0  0  0  0  0  0  0  0  0  0  0  0
  -88.8862   22.9560   -1.6986 H   0  0  0  0  0  0  0  0  0  0  0  0
  -90.4725   23.3710   -2.3895 H   0  0  0  0  0  0  0  0  0  0  0  0
  -88.0155   26.5044   -1.2657 H   0  0  0  0  0  0  0  0  0  0  0  0
 12 13  1  0  0  0
 13 14  1  0  0  0
 13 15  1  0  0  0
 13 11  1  0  0  0
 11  7  1  0  0  0
  7  8  2  0  0  0
  7  9  1  0  0  0
  9  6  1  0  0  0
  6 16  1  0  0  0
 16 17  1  0  0  0
 17 18  2  0  0  0
 18 19  1  0  0  0
 19 20  2  0  0  0
 20 21  1  0  0  0
 21 22  2  0  0  0
  6  2  1  0  0  0
  2  3  2  0  0  0
  2  4  1  0  0  0
  4  1  1  0  0  0
  1 37  1  0  0  0
 37 38  1  0  0  0
 38 39  1  0  0  0
 39 40  1  0  0  0
 40 42  1  0  0  0
 42 43  1  0  0  0
 42 44  2  0  0  0
  1 23  1  0  0  0
 23 24  2  0  0  0
 23 25  1  0  0  0
 25 27  1  0  0  0
 27 30  1  0  0  0
 30 31  1  0  0  0
 31 32  2  0  0  0
 32 33  1  0  0  0
 33 34  2  0  0  0
 34 35  1  0  0  0
 35 36  2  0  0  0
 27 28  1  0  0  0
 28 29  2  0  0  0
 22 17  1  0  0  0
 36 31  1  0  0  0
  9 10  1  0  0  0
  4  5  1  0  0  0
 40 41  1  0  0  0
 43 45  1  0  0  0
 43 46  1  0  0  0
 44 47  1  0  0  0
 25 26  1  0  0  0
M  END
> <minimizedAffinity>
-7.48891

> <CNNscore>
0.1834668964

> <CNNaffinity>
6.1515965462

> <CNN_VS>
1.1286143064

> <CNNaffinity_variance>
0.9668800235

$$$$
[H]N=C(N([H])[H])N([H])C([H])([H])C([H])([H])C([H])([H])[C@@]([H])(C(=O)N([H])[C@]([H])(C([H])=O)C([H])([H])c1c([H])c([H])c([H])c([H])c1[H])N([H])C(=O)[C@@]([H])(N([H])C(=O)OC(C([H])([H])[H])(C([H])([H])[H])C([H])([H])[H])C([H])([H])c1c([H])c([H])c([H])c([H])c1[H]


 47 48  0  0  0  0  0  0  0  0999 V2000
  -87.5183   30.0053   -1.5739 C   0  0  0  0  0  0  0  0  0  0  0  0
  -88.3631   31.1417   -3.6160 C   0  0  0  0  0  0  0  0  0  0  0  0
  -87.7677   30.2720   -4.3204 O   0  0  0  0  0  0  0  0  0  0  0  0
  -88.3040   31.0972   -2.2010 N   0  0  0  0  0  0  0  0  0  0  0  0
  -88.7536   31.7573   -1.5500 H   0  0  0  0  0  0  0  0  0  0  0  0
  -89.1009   32.1942   -4.3310 C   0  0  0  0  0  0  0  0  0  0  0  0
  -91.1288   30.7449   -4.3244 C   0  0  0  0  0  0  0  0  0  0  0  0
  -90.9933   30.4883   -3.0775 O   0  0  0  0  0  0  0  0  0  0  0  0
  -90.2509   31.5711   -5.0284 N   0  0  0  0  0  0  0  0  0  0  0  0
  -90.3625   31.7735   -6.0211 H   0  0  0  0  0  0  0  0  0  0  0  0
  -92.2306   30.1241   -4.9073 O   0  0  0  0  0  0  0  0  0  0  0  0
  -93.6119   32.0705   -4.4711 C   0  0  0  0  0  0  0  0  0  0  0  0
  -93.5328   30.6141   -4.8395 C   0  0  0  0  0  0  0  0  0  0  0  0
  -94.1589   30.4821   -6.2258 C   0  0  0  0  0  0  0  0  0  0  0  0
  -94.3685   29.7549   -3.9125 C   0  0  0  0  0  0  0  0  0  0  0  0
  -89.6952   33.1767   -3.3914 C   0  0  0  0  0  0  0  0  0  0  0  0
  -89.3906   34.5800   -3.4996 C   0  0  0  0  0  0  0  0  0  0  0  0
  -90.3877   35.4450   -3.9676 C   0  0  0  0  0  0  0  0  0  0  0  0
  -90.1345   36.7836   -4.1144 C   0  0  0  0  0  0  0  0  0  0  0  0
  -88.8906   37.2609   -3.7949 C   0  0  0  0  0  0  0  0  0  0  0  0
  -87.8943   36.4139   -3.3290 C   0  0  0  0  0  0  0  0  0  0  0  0
  -88.1278   35.0726   -3.1758 C   0  0  0  0  0  0  0  0  0  0  0  0
  -88.3509   28.9238   -1.0858 C   0  0  0  0  0  0  0  0  0  0  0  0
  -87.9749   27.7354   -1.2463 O   0  0  0  0  0  0  0  0  0  0  0  0
  -89.5936   29.1017   -0.4167 N   0  0  0  0  0  0  0  0  0  0  0  0
  -89.9334   30.0725   -0.2524 H   0  0  0  0  0  0  0  0  0  0  0  0
  -90.4040   28.0188    0.0573 C   0  0  0  0  0  0  0  0  0  0  0  0
  -91.4146   27.5461   -0.9058 C   0  0  0  0  0  0  0  0  0  0  0  0
  -92.1688   26.6314   -0.6804 O   0  0  0  0  0  0  0  0  0  0  0  0
  -91.1099   28.3557    1.3569 C   0  0  0  0  0  0  0  0  0  0  0  0
  -90.6714   27.5468    2.4934 C   0  0  0  0  0  0  0  0  0  0  0  0
  -90.6609   28.0898    3.7562 C   0  0  0  0  0  0  0  0  0  0  0  0
  -90.2612   27.3858    4.8611 C   0  0  0  0  0  0  0  0  0  0  0  0
  -89.8548   26.0777    4.6826 C   0  0  0  0  0  0  0  0  0  0  0  0
  -89.8650   25.5347    3.4223 C   0  0  0  0  0  0  0  0  0  0  0  0
  -90.2645   26.2464    2.3359 C   0  0  0  0  0  0  0  0  0  0  0  0
  -86.7760   30.7467   -0.4521 C   0  0  0  0  0  0  0  0  0  0  0  0
  -85.9187   29.8864    0.3937 C   0  0  0  0  0  0  0  0  0  0  0  0
  -84.5192   30.5113    0.3833 C   0  0  0  0  0  0  0  0  0  0  0  0
  -84.6483   31.9338    0.3736 N   0  0  0  0  0  0  0  0  0  0  0  0
  -85.4713   32.4024    0.8570 H   0  0  0  0  0  0  0  0  0  0  0  0
  -83.6604   32.7188   -0.2924 C   0  0  0  0  0  0  0  0  0  0  0  0
  -82.3138   32.6320    0.0926 N   0  0  0  0  0  0  0  0  0  0  0  0
  -84.0276   33.5086   -1.2534 N   0  0  0  0  0  0  0  0  0  0  0  0
  -81.6395   33.3987   -0.0965 H   0  0  0  0  0  0  0  0  0  0  0  0
  -81.9597   31.7853    0.5818 H   0  0  0  0  0  0  0  0  0  0  0  0
  -85.0138   33.5859   -1.5508 H   0  0  0  0  0  0  0  0  0  0  0  0
 12 13  1  0  0  0
 13 14  1  0  0  0
 13 15  1  0  0  0
 13 11  1  0  0  0
 11  7  1  0  0  0
  7  8  2  0  0  0
  7  9  1  0  0  0
  9  6  1  0  0  0
  6 16  1  0  0  0
 16 17  1  0  0  0
 17 18  2  0  0  0
 18 19  1  0  0  0
 19 20  2  0  0  0
 20 21  1  0  0  0
 21 22  2  0  0  0
  6  2  1  0  0  0
  2  3  2  0  0  0
  2  4  1  0  0  0
  4  1  1  0  0  0
  1 37  1  0  0  0
 37 38  1  0  0  0
 38 39  1  0  0  0
 39 40  1  0  0  0
 40 42  1  0  0  0
 42 43  1  0  0  0
 42 44  2  0  0  0
  1 23  1  0  0  0
 23 24  2  0  0  0
 23 25  1  0  0  0
 25 27  1  0  0  0
 27 30  1  0  0  0
 30 31  1  0  0  0
 31 32  2  0  0  0
 32 33  1  0  0  0
 33 34  2  0  0  0
 34 35  1  0  0  0
 35 36  2  0  0  0
 27 28  1  0  0  0
 28 29  2  0  0  0
 22 17  1  0  0  0
 36 31  1  0  0  0
  9 10  1  0  0  0
  4  5  1  0  0  0
 40 41  1  0  0  0
 43 45  1  0  0  0
 43 46  1  0  0  0
 44 47  1  0  0  0
 25 26  1  0  0  0
M  END
> <minimizedAffinity>
-7.49664

> <CNNscore>
0.1826681346

> <CNNaffinity>
6.6873931885

> <CNN_VS>
1.2215735912

> <CNNaffinity_variance>
0.1262097806

$$$$
[H]N=C(N([H])[H])N([H])C([H])([H])C([H])([H])C([H])([H])[C@@]([H])(C(=O)N([H])[C@]([H])(C([H])=O)C([H])([H])c1c([H])c([H])c([H])c([H])c1[H])N([H])C(=O)[C@@]([H])(N([H])C(=O)OC(C([H])([H])[H])(C([H])([H])[H])C([H])([H])[H])C([H])([H])c1c([H])c([H])c([H])c([H])c1[H]


 47 48  0  0  0  0  0  0  0  0999 V2000
  -88.4220   28.7279   -0.6444 C   0  0  0  0  0  0  0  0  0  0  0  0
  -89.7757   26.6698   -0.3171 C   0  0  0  0  0  0  0  0  0  0  0  0
  -89.4597   26.3015   -1.4883 O   0  0  0  0  0  0  0  0  0  0  0  0
  -89.2972   27.8925    0.2154 N   0  0  0  0  0  0  0  0  0  0  0  0
  -89.4999   28.2716    1.1518 H   0  0  0  0  0  0  0  0  0  0  0  0
  -90.6622   25.7814    0.4496 C   0  0  0  0  0  0  0  0  0  0  0  0
  -92.1000   23.8040   -0.0362 C   0  0  0  0  0  0  0  0  0  0  0  0
  -92.7611   23.9650    1.0482 O   0  0  0  0  0  0  0  0  0  0  0  0
  -91.0520   24.6439   -0.4173 N   0  0  0  0  0  0  0  0  0  0  0  0
  -90.5284   24.5129   -1.2819 H   0  0  0  0  0  0  0  0  0  0  0  0
  -92.5251   22.7166   -0.7951 O   0  0  0  0  0  0  0  0  0  0  0  0
  -94.1133   24.0882   -2.0130 C   0  0  0  0  0  0  0  0  0  0  0  0
  -93.3067   22.8203   -1.9435 C   0  0  0  0  0  0  0  0  0  0  0  0
  -92.3717   22.8336   -3.1505 C   0  0  0  0  0  0  0  0  0  0  0  0
  -94.1796   21.5912   -2.0961 C   0  0  0  0  0  0  0  0  0  0  0  0
  -89.9568   25.1729    1.6044 C   0  0  0  0  0  0  0  0  0  0  0  0
  -89.9759   25.8049    2.8983 C   0  0  0  0  0  0  0  0  0  0  0  0
  -89.3798   25.1376    3.9757 C   0  0  0  0  0  0  0  0  0  0  0  0
  -89.3990   25.6870    5.2308 C   0  0  0  0  0  0  0  0  0  0  0  0
  -90.0099   26.8997    5.4132 C   0  0  0  0  0  0  0  0  0  0  0  0
  -90.6032   27.5716    4.3531 C   0  0  0  0  0  0  0  0  0  0  0  0
  -90.5949   27.0386    3.0910 C   0  0  0  0  0  0  0  0  0  0  0  0
  -87.0335   28.6973   -0.2294 C   0  0  0  0  0  0  0  0  0  0  0  0
  -86.1297   28.8587   -1.0875 O   0  0  0  0  0  0  0  0  0  0  0  0
  -86.5962   28.4976    1.1095 N   0  0  0  0  0  0  0  0  0  0  0  0
  -87.3156   28.3734    1.8524 H   0  0  0  0  0  0  0  0  0  0  0  0
  -85.2176   28.4687    1.5001 C   0  0  0  0  0  0  0  0  0  0  0  0
  -84.8506   27.3285    2.3590 C   0  0  0  0  0  0  0  0  0  0  0  0
  -83.7104   27.0472    2.6366 O   0  0  0  0  0  0  0  0  0  0  0  0
  -84.7921   29.7450    2.2006 C   0  0  0  0  0  0  0  0  0  0  0  0
  -84.3018   30.7811    1.2925 C   0  0  0  0  0  0  0  0  0  0  0  0
  -85.1831   31.6808    0.7414 C   0  0  0  0  0  0  0  0  0  0  0  0
  -84.7880   32.6733   -0.1158 C   0  0  0  0  0  0  0  0  0  0  0  0
  -83.4455   32.7606   -0.4296 C   0  0  0  0  0  0  0  0  0  0  0  0
  -82.5650   31.8630    0.1201 C   0  0  0  0  0  0  0  0  0  0  0  0
  -82.9728   30.8836    0.9692 C   0  0  0  0  0  0  0  0  0  0  0  0
  -89.0623   30.1167   -0.5016 C   0  0  0  0  0  0  0  0  0  0  0  0
  -89.3515   30.7973   -1.7837 C   0  0  0  0  0  0  0  0  0  0  0  0
  -89.0461   29.7893   -2.8972 C   0  0  0  0  0  0  0  0  0  0  0  0
  -87.9129   30.2469   -3.6367 N   0  0  0  0  0  0  0  0  0  0  0  0
  -87.0020   29.6988   -3.6187 H   0  0  0  0  0  0  0  0  0  0  0  0
  -88.0174   31.4480   -4.3998 C   0  0  0  0  0  0  0  0  0  0  0  0
  -88.9642   31.5482   -5.4306 N   0  0  0  0  0  0  0  0  0  0  0  0
  -87.2263   32.4384   -4.1249 N   0  0  0  0  0  0  0  0  0  0  0  0
  -88.8524   32.2211   -6.2135 H   0  0  0  0  0  0  0  0  0  0  0  0
  -89.8090   30.9416   -5.4301 H   0  0  0  0  0  0  0  0  0  0  0  0
  -86.5234   32.3833   -3.3700 H   0  0  0  0  0  0  0  0  0  0  0  0
 12 13  1  0  0  0
 13 14  1  0  0  0
 13 15  1  0  0  0
 13 11  1  0  0  0
 11  7  1  0  0  0
  7  8  2  0  0  0
  7  9  1  0  0  0
  9  6  1  0  0  0
  6 16  1  0  0  0
 16 17  1  0  0  0
 17 18  2  0  0  0
 18 19  1  0  0  0
 19 20  2  0  0  0
 20 21  1  0  0  0
 21 22  2  0  0  0
  6  2  1  0  0  0
  2  3  2  0  0  0
  2  4  1  0  0  0
  4  1  1  0  0  0
  1 37  1  0  0  0
 37 38  1  0  0  0
 38 39  1  0  0  0
 39 40  1  0  0  0
 40 42  1  0  0  0
 42 43  1  0  0  0
 42 44  2  0  0  0
  1 23  1  0  0  0
 23 24  2  0  0  0
 23 25  1  0  0  0
 25 27  1  0  0  0
 27 30  1  0  0  0
 30 31  1  0  0  0
 31 32  2  0  0  0
 32 33  1  0  0  0
 33 34  2  0  0  0
 34 35  1  0  0  0
 35 36  2  0  0  0
 27 28  1  0  0  0
 28 29  2  0  0  0
 22 17  1  0  0  0
 36 31  1  0  0  0
  9 10  1  0  0  0
  4  5  1  0  0  0
 40 41  1  0  0  0
 43 45  1  0  0  0
 43 46  1  0  0  0
 44 47  1  0  0  0
 25 26  1  0  0  0
M  END
> <minimizedAffinity>
-8.05822

> <CNNscore>
0.1738589108

> <CNNaffinity>
6.6178083420

> <CNN_VS>
1.1505649090

> <CNNaffinity_variance>
0.1946479380

$$$$
[H]N=C(N([H])[H])N([H])C([H])([H])C([H])([H])C([H])([H])[C@@]([H])(C(=O)N([H])[C@]([H])(C([H])=O)C([H])([H])c1c([H])c([H])c([H])c([H])c1[H])N([H])C(=O)[C@@]([H])(N([H])C(=O)OC(C([H])([H])[H])(C([H])([H])[H])C([H])([H])[H])C([H])([H])c1c([H])c([H])c([H])c([H])c1[H]


 47 48  0  0  0  0  0  0  0  0999 V2000
  -88.5818   28.0180   -0.3253 C   0  0  0  0  0  0  0  0  0  0  0  0
  -90.0563   29.3491   -1.8184 C   0  0  0  0  0  0  0  0  0  0  0  0
  -90.7182   29.7165   -0.8016 O   0  0  0  0  0  0  0  0  0  0  0  0
  -88.9420   28.4837   -1.6877 N   0  0  0  0  0  0  0  0  0  0  0  0
  -88.3475   28.1339   -2.4532 H   0  0  0  0  0  0  0  0  0  0  0  0
  -90.5027   29.8504   -3.1271 C   0  0  0  0  0  0  0  0  0  0  0  0
  -92.0660   27.9953   -3.6995 C   0  0  0  0  0  0  0  0  0  0  0  0
  -91.1047   27.1539   -3.7820 O   0  0  0  0  0  0  0  0  0  0  0  0
  -91.8708   29.3411   -3.3837 N   0  0  0  0  0  0  0  0  0  0  0  0
  -92.6390   30.0079   -3.3184 H   0  0  0  0  0  0  0  0  0  0  0  0
  -93.3182   27.4416   -3.9534 O   0  0  0  0  0  0  0  0  0  0  0  0
  -94.9015   28.7029   -5.2910 C   0  0  0  0  0  0  0  0  0  0  0  0
  -93.9766   27.5218   -5.1784 C   0  0  0  0  0  0  0  0  0  0  0  0
  -92.9224   27.6900   -6.2700 C   0  0  0  0  0  0  0  0  0  0  0  0
  -94.6915   26.2193   -5.4755 C   0  0  0  0  0  0  0  0  0  0  0  0
  -90.6257   31.3290   -3.1305 C   0  0  0  0  0  0  0  0  0  0  0  0
  -89.4595   32.1675   -3.0270 C   0  0  0  0  0  0  0  0  0  0  0  0
  -88.6614   32.3439   -4.1642 C   0  0  0  0  0  0  0  0  0  0  0  0
  -87.5264   33.1094   -4.1057 C   0  0  0  0  0  0  0  0  0  0  0  0
  -87.1868   33.6996   -2.9168 C   0  0  0  0  0  0  0  0  0  0  0  0
  -87.9702   33.5334   -1.7829 C   0  0  0  0  0  0  0  0  0  0  0  0
  -89.1082   32.7715   -1.8212 C   0  0  0  0  0  0  0  0  0  0  0  0
  -87.1891   28.2557   -0.0010 C   0  0  0  0  0  0  0  0  0  0  0  0
  -86.4055   28.6515   -0.9002 O   0  0  0  0  0  0  0  0  0  0  0  0
  -86.6198   28.0762    1.2902 N   0  0  0  0  0  0  0  0  0  0  0  0
  -87.2399   27.7618    2.0658 H   0  0  0  0  0  0  0  0  0  0  0  0
  -85.2390   28.3149    1.5910 C   0  0  0  0  0  0  0  0  0  0  0  0
  -84.6077   27.2758    2.4240 C   0  0  0  0  0  0  0  0  0  0  0  0
  -83.4573   27.3238    2.7855 O   0  0  0  0  0  0  0  0  0  0  0  0
  -85.0211   29.6572    2.2629 C   0  0  0  0  0  0  0  0  0  0  0  0
  -84.4526   30.6740    1.3790 C   0  0  0  0  0  0  0  0  0  0  0  0
  -83.0899   30.7545    1.2161 C   0  0  0  0  0  0  0  0  0  0  0  0
  -82.4954   31.6835    0.4040 C   0  0  0  0  0  0  0  0  0  0  0  0
  -83.3121   32.5688   -0.2722 C   0  0  0  0  0  0  0  0  0  0  0  0
  -84.6725   32.4893   -0.1103 C   0  0  0  0  0  0  0  0  0  0  0  0
  -85.2473   31.5615    0.6993 C   0  0  0  0  0  0  0  0  0  0  0  0
  -88.9381   26.5254   -0.3911 C   0  0  0  0  0  0  0  0  0  0  0  0
  -90.2011   26.1622    0.2897 C   0  0  0  0  0  0  0  0  0  0  0  0
  -89.9383   24.8503    1.0373 C   0  0  0  0  0  0  0  0  0  0  0  0
  -90.4899   23.7700    0.2829 N   0  0  0  0  0  0  0  0  0  0  0  0
  -91.5200   23.5225    0.3725 H   0  0  0  0  0  0  0  0  0  0  0  0
  -89.6427   23.0270   -0.5921 C   0  0  0  0  0  0  0  0  0  0  0  0
  -89.5507   23.3753   -1.9483 N   0  0  0  0  0  0  0  0  0  0  0  0
  -88.9639   22.0305   -0.1140 N   0  0  0  0  0  0  0  0  0  0  0  0
  -89.2503   22.6919   -2.6702 H   0  0  0  0  0  0  0  0  0  0  0  0
  -89.7848   24.3390   -2.2613 H   0  0  0  0  0  0  0  0  0  0  0  0
  -89.0185   21.7593    0.8812 H   0  0  0  0  0  0  0  0  0  0  0  0
 12 13  1  0  0  0
 13 14  1  0  0  0
 13 15  1  0  0  0
 13 11  1  0  0  0
 11  7  1  0  0  0
  7  8  2  0  0  0
  7  9  1  0  0  0
  9  6  1  0  0  0
  6 16  1  0  0  0
 16 17  1  0  0  0
 17 18  2  0  0  0
 18 19  1  0  0  0
 19 20  2  0  0  0
 20 21  1  0  0  0
 21 22  2  0  0  0
  6  2  1  0  0  0
  2  3  2  0  0  0
  2  4  1  0  0  0
  4  1  1  0  0  0
  1 37  1  0  0  0
 37 38  1  0  0  0
 38 39  1  0  0  0
 39 40  1  0  0  0
 40 42  1  0  0  0
 42 43  1  0  0  0
 42 44  2  0  0  0
  1 23  1  0  0  0
 23 24  2  0  0  0
 23 25  1  0  0  0
 25 27  1  0  0  0
 27 30  1  0  0  0
 30 31  1  0  0  0
 31 32  2  0  0  0
 32 33  1  0  0  0
 33 34  2  0  0  0
 34 35  1  0  0  0
 35 36  2  0  0  0
 27 28  1  0  0  0
 28 29  2  0  0  0
 22 17  1  0  0  0
 36 31  1  0  0  0
  9 10  1  0  0  0
  4  5  1  0  0  0
 40 41  1  0  0  0
 43 45  1  0  0  0
 43 46  1  0  0  0
 44 47  1  0  0  0
 25 26  1  0  0  0
M  END
> <minimizedAffinity>
-7.97184

> <CNNscore>
0.1689492017

> <CNNaffinity>
6.6991500854

> <CNN_VS>
1.1318160295

> <CNNaffinity_variance>
0.1857194602

$$$$
[H]N=C(N([H])[H])N([H])C([H])([H])C([H])([H])C([H])([H])[C@@]([H])(C(=O)N([H])[C@]([H])(C([H])=O)C([H])([H])c1c([H])c([H])c([H])c([H])c1[H])N([H])C(=O)[C@@]([H])(N([H])C(=O)OC(C([H])([H])[H])(C([H])([H])[H])C([H])([H])[H])C([H])([H])c1c([H])c([H])c([H])c([H])c1[H]


 47 48  0  0  0  0  0  0  0  0999 V2000
  -87.8767   27.4542    0.4976 C   0  0  0  0  0  0  0  0  0  0  0  0
  -89.6392   28.4669   -0.9320 C   0  0  0  0  0  0  0  0  0  0  0  0
  -90.0650   29.1013    0.0795 O   0  0  0  0  0  0  0  0  0  0  0  0
  -88.5234   27.5995   -0.8304 N   0  0  0  0  0  0  0  0  0  0  0  0
  -88.1089   27.0457   -1.5941 H   0  0  0  0  0  0  0  0  0  0  0  0
  -90.3584   28.6641   -2.1997 C   0  0  0  0  0  0  0  0  0  0  0  0
  -90.4670   31.0413   -2.9415 C   0  0  0  0  0  0  0  0  0  0  0  0
  -91.6156   31.2022   -2.3995 O   0  0  0  0  0  0  0  0  0  0  0  0
  -89.7702   29.8324   -2.8970 N   0  0  0  0  0  0  0  0  0  0  0  0
  -88.8554   29.7083   -3.3292 H   0  0  0  0  0  0  0  0  0  0  0  0
  -89.9822   32.1823   -3.5757 O   0  0  0  0  0  0  0  0  0  0  0  0
  -89.2933   34.4872   -3.2605 C   0  0  0  0  0  0  0  0  0  0  0  0
  -89.0135   33.0262   -3.0372 C   0  0  0  0  0  0  0  0  0  0  0  0
  -88.9916   32.8142   -1.5253 C   0  0  0  0  0  0  0  0  0  0  0  0
  -87.6390   32.6349   -3.5408 C   0  0  0  0  0  0  0  0  0  0  0  0
  -90.1636   27.5168   -3.1202 C   0  0  0  0  0  0  0  0  0  0  0  0
  -91.1956   26.5281   -3.2970 C   0  0  0  0  0  0  0  0  0  0  0  0
  -92.1936   26.7684   -4.2497 C   0  0  0  0  0  0  0  0  0  0  0  0
  -93.2117   25.8697   -4.4324 C   0  0  0  0  0  0  0  0  0  0  0  0
  -93.2358   24.7326   -3.6686 C   0  0  0  0  0  0  0  0  0  0  0  0
  -92.2518   24.4824   -2.7219 C   0  0  0  0  0  0  0  0  0  0  0  0
  -91.2262   25.3689   -2.5240 C   0  0  0  0  0  0  0  0  0  0  0  0
  -86.5964   28.1294    0.5750 C   0  0  0  0  0  0  0  0  0  0  0  0
  -86.1196   28.6674   -0.4557 O   0  0  0  0  0  0  0  0  0  0  0  0
  -85.8132   28.2399    1.7574 N   0  0  0  0  0  0  0  0  0  0  0  0
  -86.1805   27.8184    2.6362 H   0  0  0  0  0  0  0  0  0  0  0  0
  -84.5478   28.9104    1.8137 C   0  0  0  0  0  0  0  0  0  0  0  0
  -83.5467   28.2530    2.6728 C   0  0  0  0  0  0  0  0  0  0  0  0
  -83.4947   27.0584    2.8359 O   0  0  0  0  0  0  0  0  0  0  0  0
  -84.6816   30.3533    2.2619 C   0  0  0  0  0  0  0  0  0  0  0  0
  -84.4723   31.3257    1.1900 C   0  0  0  0  0  0  0  0  0  0  0  0
  -83.1949   31.6365    0.7879 C   0  0  0  0  0  0  0  0  0  0  0  0
  -82.9317   32.5385   -0.2086 C   0  0  0  0  0  0  0  0  0  0  0  0
  -84.0045   33.1526   -0.8252 C   0  0  0  0  0  0  0  0  0  0  0  0
  -85.2800   32.8431   -0.4246 C   0  0  0  0  0  0  0  0  0  0  0  0
  -85.5247   31.9457    0.5660 C   0  0  0  0  0  0  0  0  0  0  0  0
  -87.7619   25.9287    0.6341 C   0  0  0  0  0  0  0  0  0  0  0  0
  -89.0124   25.1885    0.3532 C   0  0  0  0  0  0  0  0  0  0  0  0
  -90.0062   25.5656    1.4575 C   0  0  0  0  0  0  0  0  0  0  0  0
  -89.7902   24.7143    2.5840 N   0  0  0  0  0  0  0  0  0  0  0  0
  -88.9179   24.1089    2.6411 H   0  0  0  0  0  0  0  0  0  0  0  0
  -90.7583   24.6856    3.6317 C   0  0  0  0  0  0  0  0  0  0  0  0
  -90.8522   25.7560    4.5342 N   0  0  0  0  0  0  0  0  0  0  0  0
  -91.5443   23.6589    3.7336 N   0  0  0  0  0  0  0  0  0  0  0  0
  -91.2653   25.6404    5.4799 H   0  0  0  0  0  0  0  0  0  0  0  0
  -90.5052   26.6999    4.2693 H   0  0  0  0  0  0  0  0  0  0  0  0
  -91.4901   22.8619    3.0788 H   0  0  0  0  0  0  0  0  0  0  0  0
 12 13  1  0  0  0
 13 14  1  0  0  0
 13 15  1  0  0  0
 13 11  1  0  0  0
 11  7  1  0  0  0
  7  8  2  0  0  0
  7  9  1  0  0  0
  9  6  1  0  0  0
  6 16  1  0  0  0
 16 17  1  0  0  0
 17 18  2  0  0  0
 18 19  1  0  0  0
 19 20  2  0  0  0
 20 21  1  0  0  0
 21 22  2  0  0  0
  6  2  1  0  0  0
  2  3  2  0  0  0
  2  4  1  0  0  0
  4  1  1  0  0  0
  1 37  1  0  0  0
 37 38  1  0  0  0
 38 39  1  0  0  0
 39 40  1  0  0  0
 40 42  1  0  0  0
 42 43  1  0  0  0
 42 44  2  0  0  0
  1 23  1  0  0  0
 23 24  2  0  0  0
 23 25  1  0  0  0
 25 27  1  0  0  0
 27 30  1  0  0  0
 30 31  1  0  0  0
 31 32  2  0  0  0
 32 33  1  0  0  0
 33 34  2  0  0  0
 34 35  1  0  0  0
 35 36  2  0  0  0
 27 28  1  0  0  0
 28 29  2  0  0  0
 22 17  1  0  0  0
 36 31  1  0  0  0
  9 10  1  0  0  0
  4  5  1  0  0  0
 40 41  1  0  0  0
 43 45  1  0  0  0
 43 46  1  0  0  0
 44 47  1  0  0  0
 25 26  1  0  0  0
M  END
> <minimizedAffinity>
-8.39430

> <CNNscore>
0.1290789694

> <CNNaffinity>
6.8588342667

> <CNN_VS>
0.8853312731

> <CNNaffinity_variance>
0.1073592529

$$$$
[H]N=C(N([H])[H])N([H])C([H])([H])C([H])([H])C([H])([H])[C@@]([H])(C(=O)N([H])[C@]([H])(C([H])=O)C([H])([H])c1c([H])c([H])c([H])c([H])c1[H])N([H])C(=O)[C@@]([H])(N([H])C(=O)OC(C([H])([H])[H])(C([H])([H])[H])C([H])([H])[H])C([H])([H])c1c([H])c([H])c([H])c([H])c1[H]


 47 48  0  0  0  0  0  0  0  0999 V2000
  -87.7461   31.3864   -1.8497 C   0  0  0  0  0  0  0  0  0  0  0  0
  -88.4387   28.9999   -1.8574 C   0  0  0  0  0  0  0  0  0  0  0  0
  -88.1227   28.9343   -3.0833 O   0  0  0  0  0  0  0  0  0  0  0  0
  -88.2833   30.2053   -1.1291 N   0  0  0  0  0  0  0  0  0  0  0  0
  -88.5120   30.3520   -0.1351 H   0  0  0  0  0  0  0  0  0  0  0  0
  -88.9791   27.7805   -1.2373 C   0  0  0  0  0  0  0  0  0  0  0  0
  -88.6314   27.4468    1.2083 C   0  0  0  0  0  0  0  0  0  0  0  0
  -87.6970   26.5963    1.0025 O   0  0  0  0  0  0  0  0  0  0  0  0
  -89.3202   28.0820    0.1733 N   0  0  0  0  0  0  0  0  0  0  0  0
  -90.0633   28.7592    0.3412 H   0  0  0  0  0  0  0  0  0  0  0  0
  -88.8928   27.6764    2.5567 O   0  0  0  0  0  0  0  0  0  0  0  0
  -90.6426   26.0072    2.7534 C   0  0  0  0  0  0  0  0  0  0  0  0
  -90.0828   27.3322    3.1937 C   0  0  0  0  0  0  0  0  0  0  0  0
  -89.7984   27.2084    4.6887 C   0  0  0  0  0  0  0  0  0  0  0  0
  -91.0981   28.4472    3.0454 C   0  0  0  0  0  0  0  0  0  0  0  0
  -90.2551   27.3669   -1.8714 C   0  0  0  0  0  0  0  0  0  0  0  0
  -90.5915   25.9740   -2.0144 C   0  0  0  0  0  0  0  0  0  0  0  0
  -89.6495   25.0161   -1.6190 C   0  0  0  0  0  0  0  0  0  0  0  0
  -89.9140   23.6794   -1.7633 C   0  0  0  0  0  0  0  0  0  0  0  0
  -91.1152   23.2965   -2.2994 C   0  0  0  0  0  0  0  0  0  0  0  0
  -92.0577   24.2363   -2.6940 C   0  0  0  0  0  0  0  0  0  0  0  0
  -91.8117   25.5772   -2.5584 C   0  0  0  0  0  0  0  0  0  0  0  0
  -86.7646   32.1184   -1.0738 C   0  0  0  0  0  0  0  0  0  0  0  0
  -86.7268   33.3721   -1.1524 O   0  0  0  0  0  0  0  0  0  0  0  0
  -85.8147   31.5175   -0.2020 N   0  0  0  0  0  0  0  0  0  0  0  0
  -85.8227   30.4810   -0.0992 H   0  0  0  0  0  0  0  0  0  0  0  0
  -84.8501   32.2586    0.5560 C   0  0  0  0  0  0  0  0  0  0  0  0
  -83.4882   32.2417   -0.0071 C   0  0  0  0  0  0  0  0  0  0  0  0
  -83.0455   33.1258   -0.6990 O   0  0  0  0  0  0  0  0  0  0  0  0
  -84.7720   31.7936    1.9976 C   0  0  0  0  0  0  0  0  0  0  0  0
  -84.3784   30.3930    2.1452 C   0  0  0  0  0  0  0  0  0  0  0  0
  -83.0595   30.0338    1.9987 C   0  0  0  0  0  0  0  0  0  0  0  0
  -82.6266   28.7404    2.1238 C   0  0  0  0  0  0  0  0  0  0  0  0
  -83.5659   27.7685    2.4090 C   0  0  0  0  0  0  0  0  0  0  0  0
  -84.8827   28.1261    2.5555 C   0  0  0  0  0  0  0  0  0  0  0  0
  -85.2965   29.4141    2.4283 C   0  0  0  0  0  0  0  0  0  0  0  0
  -89.0193   32.1987   -2.1296 C   0  0  0  0  0  0  0  0  0  0  0  0
  -89.3716   32.3191   -3.5620 C   0  0  0  0  0  0  0  0  0  0  0  0
  -89.7639   33.7817   -3.7987 C   0  0  0  0  0  0  0  0  0  0  0  0
  -88.7090   34.6244   -3.3326 N   0  0  0  0  0  0  0  0  0  0  0  0
  -88.7549   35.0565   -2.3622 H   0  0  0  0  0  0  0  0  0  0  0  0
  -87.5930   34.8797   -4.1841 C   0  0  0  0  0  0  0  0  0  0  0  0
  -87.7866   35.4703   -5.4422 N   0  0  0  0  0  0  0  0  0  0  0  0
  -86.4045   34.5579   -3.7764 N   0  0  0  0  0  0  0  0  0  0  0  0
  -87.0991   35.3571   -6.2121 H   0  0  0  0  0  0  0  0  0  0  0  0
  -88.6350   36.0416   -5.6304 H   0  0  0  0  0  0  0  0  0  0  0  0
  -86.2422   34.1226   -2.8538 H   0  0  0  0  0  0  0  0  0  0  0  0
 12 13  1  0  0  0
 13 14  1  0  0  0
 13 15  1  0  0  0
 13 11  1  0  0  0
 11  7  1  0  0  0
  7  8  2  0  0  0
  7  9  1  0  0  0
  9  6  1  0  0  0
  6 16  1  0  0  0
 16 17  1  0  0  0
 17 18  2  0  0  0
 18 19  1  0  0  0
 19 20  2  0  0  0
 20 21  1  0  0  0
 21 22  2  0  0  0
  6  2  1  0  0  0
  2  3  2  0  0  0
  2  4  1  0  0  0
  4  1  1  0  0  0
  1 37  1  0  0  0
 37 38  1  0  0  0
 38 39  1  0  0  0
 39 40  1  0  0  0
 40 42  1  0  0  0
 42 43  1  0  0  0
 42 44  2  0  0  0
  1 23  1  0  0  0
 23 24  2  0  0  0
 23 25  1  0  0  0
 25 27  1  0  0  0
 27 30  1  0  0  0
 30 31  1  0  0  0
 31 32  2  0  0  0
 32 33  1  0  0  0
 33 34  2  0  0  0
 34 35  1  0  0  0
 35 36  2  0  0  0
 27 28  1  0  0  0
 28 29  2  0  0  0
 22 17  1  0  0  0
 36 31  1  0  0  0
  9 10  1  0  0  0
  4  5  1  0  0  0
 40 41  1  0  0  0
 43 45  1  0  0  0
 43 46  1  0  0  0
 44 47  1  0  0  0
 25 26  1  0  0  0
M  END
> <minimizedAffinity>
-8.37620

> <CNNscore>
0.1288768798

> <CNNaffinity>
6.6453452110

> <CNN_VS>
0.8564313650

> <CNNaffinity_variance>
0.4306253791

$$$$
[H]OC([H])([H])C([H])(N=C([H])OC([H])([H])C([H])([H])n1nc2nc([H])nc(N([H])[H])c2c1[H])C([H])([H])[H]


 22 23  0  0  0  0  0  0  0  0999 V2000
  -85.3761   29.7571    1.4407 N   0  0  0  0  0  0  0  0  0  0  0  0
  -84.1703   30.3317    1.2804 C   0  0  0  0  0  0  0  0  0  0  0  0
  -84.2565   31.4298    0.4381 C   0  0  0  0  0  0  0  0  0  0  0  0
  -85.6132   31.4810    0.0955 C   0  0  0  0  0  0  0  0  0  0  0  0
  -85.9821   32.4733   -0.7310 N   0  0  0  0  0  0  0  0  0  0  0  0
  -85.1074   33.3828   -1.2166 C   0  0  0  0  0  0  0  0  0  0  0  0
  -83.7911   33.3110   -0.8674 N   0  0  0  0  0  0  0  0  0  0  0  0
  -83.3572   32.3474   -0.0480 C   0  0  0  0  0  0  0  0  0  0  0  0
  -81.9954   32.2838    0.3051 N   0  0  0  0  0  0  0  0  0  0  0  0
  -86.2201   30.4601    0.7246 N   0  0  0  0  0  0  0  0  0  0  0  0
  -81.3494   31.6366   -0.1857 H   0  0  0  0  0  0  0  0  0  0  0  0
  -81.6102   32.8810    1.0614 H   0  0  0  0  0  0  0  0  0  0  0  0
  -85.6190   28.5818    2.2671 C   0  0  0  0  0  0  0  0  0  0  0  0
  -86.2656   27.5167    1.4080 C   0  0  0  0  0  0  0  0  0  0  0  0
  -87.5874   27.3281    1.9200 O   0  0  0  0  0  0  0  0  0  0  0  0
  -88.4577   27.9608   -0.1092 N   0  0  0  0  0  0  0  0  0  0  0  0
  -88.6659   27.7774    1.1459 C   0  0  0  0  0  0  0  0  0  0  0  0
  -89.5450   28.4249   -0.9481 C   0  0  0  0  0  0  0  0  0  0  0  0
  -89.9686   29.8399   -0.5349 C   0  0  0  0  0  0  0  0  0  0  0  0
  -89.1714   27.2562   -3.0268 O   0  0  0  0  0  0  0  0  0  0  0  0
  -89.0130   28.4619   -2.3710 C   0  0  0  0  0  0  0  0  0  0  0  0
  -90.0412   27.2982   -3.5218 H   0  0  0  0  0  0  0  0  0  0  0  0
 20 21  1  0  0  0
 21 18  1  0  0  0
 18 19  1  0  0  0
 18 16  1  0  0  0
 16 17  2  0  0  0
 17 15  1  0  0  0
 15 14  1  0  0  0
 14 13  1  0  0  0
 13  1  1  0  0  0
  1  2  1  0  0  0
  2  3  2  0  0  0
  3  4  1  0  0  0
  4  5  1  0  0  0
  5  6  2  0  0  0
  6  7  1  0  0  0
  7  8  2  0  0  0
  8  9  1  0  0  0
  4 10  2  0  0  0
 10  1  1  0  0  0
  8  3  1  0  0  0
 20 22  1  0  0  0
  9 11  1  0  0  0
  9 12  1  0  0  0
M  END
> <minimizedAffinity>
-5.90146

> <CNNscore>
0.8914552927

> <CNNaffinity>
5.8076400757

> <CNN_VS>
5.1772513390

> <CNNaffinity_variance>
0.0832161158

$$$$
[H]OC([H])([H])C([H])(N=C([H])OC([H])([H])C([H])([H])n1nc2nc([H])nc(N([H])[H])c2c1[H])C([H])([H])[H]


 22 23  0  0  0  0  0  0  0  0999 V2000
  -85.2278   29.3685    1.0698 N   0  0  0  0  0  0  0  0  0  0  0  0
  -84.0751   30.0572    0.9859 C   0  0  0  0  0  0  0  0  0  0  0  0
  -84.2704   31.2661    0.3355 C   0  0  0  0  0  0  0  0  0  0  0  0
  -85.6364   31.2620    0.0278 C   0  0  0  0  0  0  0  0  0  0  0  0
  -86.1046   32.3415   -0.6197 N   0  0  0  0  0  0  0  0  0  0  0  0
  -85.3173   33.3851   -0.9644 C   0  0  0  0  0  0  0  0  0  0  0  0
  -83.9898   33.3646   -0.6530 N   0  0  0  0  0  0  0  0  0  0  0  0
  -83.4592   32.3198   -0.0088 C   0  0  0  0  0  0  0  0  0  0  0  0
  -82.0868   32.3105    0.3071 N   0  0  0  0  0  0  0  0  0  0  0  0
  -86.1440   30.1072    0.4917 N   0  0  0  0  0  0  0  0  0  0  0  0
  -81.4073   31.8053   -0.2930 H   0  0  0  0  0  0  0  0  0  0  0  0
  -81.7270   32.8071    1.1443 H   0  0  0  0  0  0  0  0  0  0  0  0
  -85.3551   28.0596    1.6973 C   0  0  0  0  0  0  0  0  0  0  0  0
  -86.5768   27.3714    1.1277 C   0  0  0  0  0  0  0  0  0  0  0  0
  -86.9574   26.3692    2.0742 O   0  0  0  0  0  0  0  0  0  0  0  0
  -89.0398   27.3251    2.2327 N   0  0  0  0  0  0  0  0  0  0  0  0
  -88.3059   26.2921    2.4482 C   0  0  0  0  0  0  0  0  0  0  0  0
  -90.4407   27.2898    2.6037 C   0  0  0  0  0  0  0  0  0  0  0  0
  -90.5863   27.0070    4.1041 C   0  0  0  0  0  0  0  0  0  0  0  0
  -91.7213   29.1903    3.3617 O   0  0  0  0  0  0  0  0  0  0  0  0
  -91.0070   28.6670    2.3011 C   0  0  0  0  0  0  0  0  0  0  0  0
  -91.0874   29.7463    3.9025 H   0  0  0  0  0  0  0  0  0  0  0  0
 20 21  1  0  0  0
 21 18  1  0  0  0
 18 19  1  0  0  0
 18 16  1  0  0  0
 16 17  2  0  0  0
 17 15  1  0  0  0
 15 14  1  0  0  0
 14 13  1  0  0  0
 13  1  1  0  0  0
  1  2  1  0  0  0
  2  3  2  0  0  0
  3  4  1  0  0  0
  4  5  1  0  0  0
  5  6  2  0  0  0
  6  7  1  0  0  0
  7  8  2  0  0  0
  8  9  1  0  0  0
  4 10  2  0  0  0
 10  1  1  0  0  0
  8  3  1  0  0  0
 20 22  1  0  0  0
  9 11  1  0  0  0
  9 12  1  0  0  0
M  END
> <minimizedAffinity>
-6.54322

> <CNNscore>
0.8570928574

> <CNNaffinity>
5.6469831467

> <CNN_VS>
4.8399887085

> <CNNaffinity_variance>
0.0945084840

$$$$
[H]OC([H])([H])C([H])(N=C([H])OC([H])([H])C([H])([H])n1nc2nc([H])nc(N([H])[H])c2c1[H])C([H])([H])[H]


 22 23  0  0  0  0  0  0  0  0999 V2000
  -86.5098   31.7866   -0.2618 N   0  0  0  0  0  0  0  0  0  0  0  0
  -85.2309   32.1937   -0.1688 C   0  0  0  0  0  0  0  0  0  0  0  0
  -84.4733   31.2769    0.5440 C   0  0  0  0  0  0  0  0  0  0  0  0
  -85.3920   30.2751    0.8801 C   0  0  0  0  0  0  0  0  0  0  0  0
  -84.9125   29.2404    1.5894 N   0  0  0  0  0  0  0  0  0  0  0  0
  -83.6177   29.1518    1.9680 C   0  0  0  0  0  0  0  0  0  0  0  0
  -82.7428   30.1410    1.6279 N   0  0  0  0  0  0  0  0  0  0  0  0
  -83.1550   31.1995    0.9222 C   0  0  0  0  0  0  0  0  0  0  0  0
  -82.2418   32.2145    0.5772 N   0  0  0  0  0  0  0  0  0  0  0  0
  -86.5811   30.6404    0.3711 N   0  0  0  0  0  0  0  0  0  0  0  0
  -82.1802   33.0860    1.1373 H   0  0  0  0  0  0  0  0  0  0  0  0
  -81.6131   32.1129   -0.2422 H   0  0  0  0  0  0  0  0  0  0  0  0
  -87.5572   32.5302   -0.9497 C   0  0  0  0  0  0  0  0  0  0  0  0
  -86.9692   33.1365   -2.2056 C   0  0  0  0  0  0  0  0  0  0  0  0
  -87.5282   34.4474   -2.3246 O   0  0  0  0  0  0  0  0  0  0  0  0
  -89.4673   34.0823   -3.5001 N   0  0  0  0  0  0  0  0  0  0  0  0
  -88.3519   34.7167   -3.4261 C   0  0  0  0  0  0  0  0  0  0  0  0
  -90.3509   34.3296   -4.6224 C   0  0  0  0  0  0  0  0  0  0  0  0
  -89.5555   34.8747   -5.8152 C   0  0  0  0  0  0  0  0  0  0  0  0
  -91.3777   32.9528   -6.3184 O   0  0  0  0  0  0  0  0  0  0  0  0
  -90.9591   32.9899   -5.0023 C   0  0  0  0  0  0  0  0  0  0  0  0
  -90.6219   32.5821   -6.8612 H   0  0  0  0  0  0  0  0  0  0  0  0
 20 21  1  0  0  0
 21 18  1  0  0  0
 18 19  1  0  0  0
 18 16  1  0  0  0
 16 17  2  0  0  0
 17 15  1  0  0  0
 15 14  1  0  0  0
 14 13  1  0  0  0
 13  1  1  0  0  0
  1  2  1  0  0  0
  2  3  2  0  0  0
  3  4  1  0  0  0
  4  5  1  0  0  0
  5  6  2  0  0  0
  6  7  1  0  0  0
  7  8  2  0  0  0
  8  9  1  0  0  0
  4 10  2  0  0  0
 10  1  1  0  0  0
  8  3  1  0  0  0
 20 22  1  0  0  0
  9 11  1  0  0  0
  9 12  1  0  0  0
M  END
> <minimizedAffinity>
-5.56440

> <CNNscore>
0.7968235612

> <CNNaffinity>
5.5071702003

> <CNN_VS>
4.3882431984

> <CNNaffinity_variance>
0.0891150013

$$$$
[H]OC([H])([H])C([H])(N=C([H])OC([H])([H])C([H])([H])n1nc2nc([H])nc(N([H])[H])c2c1[H])C([H])([H])[H]


 22 23  0  0  0  0  0  0  0  0999 V2000
  -86.8385   31.7197   -0.3421 N   0  0  0  0  0  0  0  0  0  0  0  0
  -85.6356   32.3206   -0.3864 C   0  0  0  0  0  0  0  0  0  0  0  0
  -84.6846   31.5683    0.2860 C   0  0  0  0  0  0  0  0  0  0  0  0
  -85.4027   30.4576    0.7458 C   0  0  0  0  0  0  0  0  0  0  0  0
  -84.7072   29.5464    1.4457 N   0  0  0  0  0  0  0  0  0  0  0  0
  -83.3863   29.6755    1.7030 C   0  0  0  0  0  0  0  0  0  0  0  0
  -82.7097   30.7669    1.2437 N   0  0  0  0  0  0  0  0  0  0  0  0
  -83.3423   31.7119    0.5402 C   0  0  0  0  0  0  0  0  0  0  0  0
  -82.6326   32.8343    0.0714 N   0  0  0  0  0  0  0  0  0  0  0  0
  -86.6743   30.6109    0.3383 N   0  0  0  0  0  0  0  0  0  0  0  0
  -82.6588   33.7333    0.5893 H   0  0  0  0  0  0  0  0  0  0  0  0
  -82.0701   32.7864   -0.7994 H   0  0  0  0  0  0  0  0  0  0  0  0
  -88.0454   32.2584   -0.9556 C   0  0  0  0  0  0  0  0  0  0  0  0
  -89.2249   31.4216   -0.5093 C   0  0  0  0  0  0  0  0  0  0  0  0
  -89.6830   30.7151   -1.6653 O   0  0  0  0  0  0  0  0  0  0  0  0
  -90.7176   31.4160   -3.5923 N   0  0  0  0  0  0  0  0  0  0  0  0
  -90.8180   31.2003   -2.3291 C   0  0  0  0  0  0  0  0  0  0  0  0
  -91.8668   31.9179   -4.3196 C   0  0  0  0  0  0  0  0  0  0  0  0
  -91.4378   33.0197   -5.2966 C   0  0  0  0  0  0  0  0  0  0  0  0
  -91.4542   29.8423   -5.4806 O   0  0  0  0  0  0  0  0  0  0  0  0
  -92.4295   30.7471   -5.1080 C   0  0  0  0  0  0  0  0  0  0  0  0
  -91.4146   29.1373   -4.7701 H   0  0  0  0  0  0  0  0  0  0  0  0
 20 21  1  0  0  0
 21 18  1  0  0  0
 18 19  1  0  0  0
 18 16  1  0  0  0
 16 17  2  0  0  0
 17 15  1  0  0  0
 15 14  1  0  0  0
 14 13  1  0  0  0
 13  1  1  0  0  0
  1  2  1  0  0  0
  2  3  2  0  0  0
  3  4  1  0  0  0
  4  5  1  0  0  0
  5  6  2  0  0  0
  6  7  1  0  0  0
  7  8  2  0  0  0
  8  9  1  0  0  0
  4 10  2  0  0  0
 10  1  1  0  0  0
  8  3  1  0  0  0
 20 22  1  0  0  0
  9 11  1  0  0  0
  9 12  1  0  0  0
M  END
> <minimizedAffinity>
-5.56431

> <CNNscore>
0.7429814339

> <CNNaffinity>
5.5987005234

> <CNN_VS>
4.1597304344

> <CNNaffinity_variance>
0.4145070612

$$$$
[H]OC([H])([H])C([H])(N=C([H])OC([H])([H])C([H])([H])n1nc2nc([H])nc(N([H])[H])c2c1[H])C([H])([H])[H]


 22 23  0  0  0  0  0  0  0  0999 V2000
  -84.0741   31.7029    0.2839 N   0  0  0  0  0  0  0  0  0  0  0  0
  -85.0996   30.8764    0.5585 C   0  0  0  0  0  0  0  0  0  0  0  0
  -84.6622   29.7686    1.2686 C   0  0  0  0  0  0  0  0  0  0  0  0
  -83.2855   29.9837    1.4066 C   0  0  0  0  0  0  0  0  0  0  0  0
  -82.5986   29.0399    2.0708 N   0  0  0  0  0  0  0  0  0  0  0  0
  -83.1850   27.9358    2.5856 C   0  0  0  0  0  0  0  0  0  0  0  0
  -84.5279   27.7499    2.4375 N   0  0  0  0  0  0  0  0  0  0  0  0
  -85.2707   28.6514    1.7866 C   0  0  0  0  0  0  0  0  0  0  0  0
  -86.6566   28.4480    1.6403 N   0  0  0  0  0  0  0  0  0  0  0  0
  -83.0032   31.1492    0.7997 N   0  0  0  0  0  0  0  0  0  0  0  0
  -87.0452   28.0513    0.7635 H   0  0  0  0  0  0  0  0  0  0  0  0
  -87.3166   28.6899    2.4037 H   0  0  0  0  0  0  0  0  0  0  0  0
  -84.2061   32.9547   -0.4501 C   0  0  0  0  0  0  0  0  0  0  0  0
  -85.6773   33.2188   -0.6874 C   0  0  0  0  0  0  0  0  0  0  0  0
  -85.8069   33.5931   -2.0615 O   0  0  0  0  0  0  0  0  0  0  0  0
  -87.3912   31.9596   -2.3728 N   0  0  0  0  0  0  0  0  0  0  0  0
  -86.8768   33.0600   -2.7932 C   0  0  0  0  0  0  0  0  0  0  0  0
  -88.4998   31.3720   -3.0987 C   0  0  0  0  0  0  0  0  0  0  0  0
  -89.4808   32.4632   -3.5455 C   0  0  0  0  0  0  0  0  0  0  0  0
  -88.5829   31.0358   -5.4875 O   0  0  0  0  0  0  0  0  0  0  0  0
  -87.9099   30.7015   -4.3282 C   0  0  0  0  0  0  0  0  0  0  0  0
  -88.1120   31.8235   -5.8889 H   0  0  0  0  0  0  0  0  0  0  0  0
 20 21  1  0  0  0
 21 18  1  0  0  0
 18 19  1  0  0  0
 18 16  1  0  0  0
 16 17  2  0  0  0
 17 15  1  0  0  0
 15 14  1  0  0  0
 14 13  1  0  0  0
 13  1  1  0  0  0
  1  2  1  0  0  0
  2  3  2  0  0  0
  3  4  1  0  0  0
  4  5  1  0  0  0
  5  6  2  0  0  0
  6  7  1  0  0  0
  7  8  2  0  0  0
  8  9  1  0  0  0
  4 10  2  0  0  0
 10  1  1  0  0  0
  8  3  1  0  0  0
 20 22  1  0  0  0
  9 11  1  0  0  0
  9 12  1  0  0  0
M  END
> <minimizedAffinity>
-6.51799

> <CNNscore>
0.6585701108

> <CNNaffinity>
5.5391216278

> <CNN_VS>
3.6478998661

> <CNNaffinity_variance>
0.0932758451

$$$$
[H]OC([H])([H])C([H])(N=C([H])OC([H])([H])C([H])([H])n1nc2nc([H])nc(N([H])[H])c2c1[H])C([H])([H])[H]


 22 23  0  0  0  0  0  0  0  0999 V2000
  -84.3605   31.6034    0.1222 N   0  0  0  0  0  0  0  0  0  0  0  0
  -85.3033   30.6953    0.4328 C   0  0  0  0  0  0  0  0  0  0  0  0
  -84.7622   29.6598    1.1793 C   0  0  0  0  0  0  0  0  0  0  0  0
  -83.4112   30.0073    1.3008 C   0  0  0  0  0  0  0  0  0  0  0  0
  -82.6370   29.1566    1.9941 N   0  0  0  0  0  0  0  0  0  0  0  0
  -83.1160   28.0219    2.5518 C   0  0  0  0  0  0  0  0  0  0  0  0
  -84.4360   27.7062    2.4191 N   0  0  0  0  0  0  0  0  0  0  0  0
  -85.2619   28.5101    1.7410 C   0  0  0  0  0  0  0  0  0  0  0  0
  -86.6231   28.1730    1.6110 N   0  0  0  0  0  0  0  0  0  0  0  0
  -83.2410   31.1713    0.6506 N   0  0  0  0  0  0  0  0  0  0  0  0
  -86.9756   27.7102    0.7515 H   0  0  0  0  0  0  0  0  0  0  0  0
  -87.3005   28.3798    2.3694 H   0  0  0  0  0  0  0  0  0  0  0  0
  -84.6112   32.8099   -0.6554 C   0  0  0  0  0  0  0  0  0  0  0  0
  -86.0117   33.2955   -0.3493 C   0  0  0  0  0  0  0  0  0  0  0  0
  -86.6259   33.5851   -1.6078 O   0  0  0  0  0  0  0  0  0  0  0  0
  -87.1088   32.5592   -3.6052 N   0  0  0  0  0  0  0  0  0  0  0  0
  -87.1976   32.5243   -2.3234 C   0  0  0  0  0  0  0  0  0  0  0  0
  -87.6859   31.4827   -4.3858 C   0  0  0  0  0  0  0  0  0  0  0  0
  -87.9922   30.2787   -3.4862 C   0  0  0  0  0  0  0  0  0  0  0  0
  -89.9444   31.0267   -5.1055 O   0  0  0  0  0  0  0  0  0  0  0  0
  -88.9868   32.0127   -4.9652 C   0  0  0  0  0  0  0  0  0  0  0  0
  -90.5006   31.0308   -4.2724 H   0  0  0  0  0  0  0  0  0  0  0  0
 20 21  1  0  0  0
 21 18  1  0  0  0
 18 19  1  0  0  0
 18 16  1  0  0  0
 16 17  2  0  0  0
 17 15  1  0  0  0
 15 14  1  0  0  0
 14 13  1  0  0  0
 13  1  1  0  0  0
  1  2  1  0  0  0
  2  3  2  0  0  0
  3  4  1  0  0  0
  4  5  1  0  0  0
  5  6  2  0  0  0
  6  7  1  0  0  0
  7  8  2  0  0  0
  8  9  1  0  0  0
  4 10  2  0  0  0
 10  1  1  0  0  0
  8  3  1  0  0  0
 20 22  1  0  0  0
  9 11  1  0  0  0
  9 12  1  0  0  0
M  END
> <minimizedAffinity>
-6.34110

> <CNNscore>
0.5799393058

> <CNNaffinity>
5.4868993759

> <CNN_VS>
3.1820685863

> <CNNaffinity_variance>
0.0943294317

$$$$
[H]OC([H])([H])C([H])(N=C([H])OC([H])([H])C([H])([H])n1nc2nc([H])nc(N([H])[H])c2c1[H])C([H])([H])[H]


 22 23  0  0  0  0  0  0  0  0999 V2000
  -86.7514   31.9711   -0.4326 N   0  0  0  0  0  0  0  0  0  0  0  0
  -85.5101   32.4885   -0.3969 C   0  0  0  0  0  0  0  0  0  0  0  0
  -84.6453   31.6464    0.2854 C   0  0  0  0  0  0  0  0  0  0  0  0
  -85.4578   30.5710    0.6648 C   0  0  0  0  0  0  0  0  0  0  0  0
  -84.8597   29.5871    1.3562 N   0  0  0  0  0  0  0  0  0  0  0  0
  -83.5470   29.6142    1.6783 C   0  0  0  0  0  0  0  0  0  0  0  0
  -82.7771   30.6733    1.2968 N   0  0  0  0  0  0  0  0  0  0  0  0
  -83.3102   31.6867    0.6061 C   0  0  0  0  0  0  0  0  0  0  0  0
  -82.5047   32.7748    0.2179 N   0  0  0  0  0  0  0  0  0  0  0  0
  -86.6951   30.8277    0.2070 N   0  0  0  0  0  0  0  0  0  0  0  0
  -82.4953   33.6524    0.7717 H   0  0  0  0  0  0  0  0  0  0  0  0
  -81.9055   32.7222   -0.6278 H   0  0  0  0  0  0  0  0  0  0  0  0
  -87.8884   32.6156   -1.0767 C   0  0  0  0  0  0  0  0  0  0  0  0
  -88.3766   31.7208   -2.1955 C   0  0  0  0  0  0  0  0  0  0  0  0
  -89.7391   31.4043   -1.8980 O   0  0  0  0  0  0  0  0  0  0  0  0
  -89.1024   29.2169   -1.6060 N   0  0  0  0  0  0  0  0  0  0  0  0
  -90.0684   30.0634   -1.6576 C   0  0  0  0  0  0  0  0  0  0  0  0
  -89.3967   27.8191   -1.3595 C   0  0  0  0  0  0  0  0  0  0  0  0
  -90.0789   27.1955   -2.5835 C   0  0  0  0  0  0  0  0  0  0  0  0
  -86.9932   27.9948   -1.2228 O   0  0  0  0  0  0  0  0  0  0  0  0
  -88.0639   27.1268   -1.1279 C   0  0  0  0  0  0  0  0  0  0  0  0
  -86.7978   28.3290   -0.2989 H   0  0  0  0  0  0  0  0  0  0  0  0
 20 21  1  0  0  0
 21 18  1  0  0  0
 18 19  1  0  0  0
 18 16  1  0  0  0
 16 17  2  0  0  0
 17 15  1  0  0  0
 15 14  1  0  0  0
 14 13  1  0  0  0
 13  1  1  0  0  0
  1  2  1  0  0  0
  2  3  2  0  0  0
  3  4  1  0  0  0
  4  5  1  0  0  0
  5  6  2  0  0  0
  6  7  1  0  0  0
  7  8  2  0  0  0
  8  9  1  0  0  0
  4 10  2  0  0  0
 10  1  1  0  0  0
  8  3  1  0  0  0
 20 22  1  0  0  0
  9 11  1  0  0  0
  9 12  1  0  0  0
M  END
> <minimizedAffinity>
-5.37695

> <CNNscore>
0.5776203871

> <CNNaffinity>
5.3758096695

> <CNN_VS>
3.1051771641

> <CNNaffinity_variance>
0.1148814559

$$$$
[H]OC([H])([H])C([H])(N=C([H])OC([H])([H])C([H])([H])n1nc2nc([H])nc(N([H])[H])c2c1[H])C([H])([H])[H]


 22 23  0  0  0  0  0  0  0  0999 V2000
  -87.3434   32.4992   -0.7358 N   0  0  0  0  0  0  0  0  0  0  0  0
  -86.7429   31.4361   -0.1709 C   0  0  0  0  0  0  0  0  0  0  0  0
  -85.3733   31.6337   -0.0829 C   0  0  0  0  0  0  0  0  0  0  0  0
  -85.1836   32.9043   -0.6399 C   0  0  0  0  0  0  0  0  0  0  0  0
  -83.9188   33.3542   -0.6811 N   0  0  0  0  0  0  0  0  0  0  0  0
  -82.8724   32.6357   -0.2158 C   0  0  0  0  0  0  0  0  0  0  0  0
  -83.0839   31.4005    0.3222 N   0  0  0  0  0  0  0  0  0  0  0  0
  -84.3190   30.8931    0.3935 C   0  0  0  0  0  0  0  0  0  0  0  0
  -84.5245   29.6164    0.9513 N   0  0  0  0  0  0  0  0  0  0  0  0
  -86.3932   33.3613   -1.0067 N   0  0  0  0  0  0  0  0  0  0  0  0
  -84.6227   28.7810    0.3434 H   0  0  0  0  0  0  0  0  0  0  0  0
  -84.5821   29.4843    1.9790 H   0  0  0  0  0  0  0  0  0  0  0  0
  -88.7781   32.6003   -0.9690 C   0  0  0  0  0  0  0  0  0  0  0  0
  -89.3979   31.2380   -0.7438 C   0  0  0  0  0  0  0  0  0  0  0  0
  -89.4030   30.5787   -2.0128 O   0  0  0  0  0  0  0  0  0  0  0  0
  -90.6375   30.2409   -3.9200 N   0  0  0  0  0  0  0  0  0  0  0  0
  -90.6376   30.3637   -2.6405 C   0  0  0  0  0  0  0  0  0  0  0  0
  -91.8919   30.0173   -4.6111 C   0  0  0  0  0  0  0  0  0  0  0  0
  -92.9718   29.5655   -3.6200 C   0  0  0  0  0  0  0  0  0  0  0  0
  -93.0300   31.2013   -6.3801 O   0  0  0  0  0  0  0  0  0  0  0  0
  -92.3002   31.3499   -5.2164 C   0  0  0  0  0  0  0  0  0  0  0  0
  -93.9990   31.2020   -6.1263 H   0  0  0  0  0  0  0  0  0  0  0  0
 20 21  1  0  0  0
 21 18  1  0  0  0
 18 19  1  0  0  0
 18 16  1  0  0  0
 16 17  2  0  0  0
 17 15  1  0  0  0
 15 14  1  0  0  0
 14 13  1  0  0  0
 13  1  1  0  0  0
  1  2  1  0  0  0
  2  3  2  0  0  0
  3  4  1  0  0  0
  4  5  1  0  0  0
  5  6  2  0  0  0
  6  7  1  0  0  0
  7  8  2  0  0  0
  8  9  1  0  0  0
  4 10  2  0  0  0
 10  1  1  0  0  0
  8  3  1  0  0  0
 20 22  1  0  0  0
  9 11  1  0  0  0
  9 12  1  0  0  0
M  END
> <minimizedAffinity>
-5.37992

> <CNNscore>
0.5315701962

> <CNNaffinity>
5.2392950058

> <CNN_VS>
2.7850530148

> <CNNaffinity_variance>
0.3202660680

$$$$
[H]OC([H])([H])C([H])(N=C([H])OC([H])([H])C([H])([H])n1nc2nc([H])nc(N([H])[H])c2c1[H])C([H])([H])[H]


 22 23  0  0  0  0  0  0  0  0999 V2000
  -86.6265   30.2315   -0.3418 N   0  0  0  0  0  0  0  0  0  0  0  0
  -86.8468   29.0387    0.2401 C   0  0  0  0  0  0  0  0  0  0  0  0
  -85.7772   28.6794    1.0461 C   0  0  0  0  0  0  0  0  0  0  0  0
  -84.8839   29.7491    0.9105 C   0  0  0  0  0  0  0  0  0  0  0  0
  -83.7359   29.6580    1.6016 N   0  0  0  0  0  0  0  0  0  0  0  0
  -83.4399   28.6005    2.3902 C   0  0  0  0  0  0  0  0  0  0  0  0
  -84.3272   27.5713    2.5053 N   0  0  0  0  0  0  0  0  0  0  0  0
  -85.4891   27.5989    1.8440 C   0  0  0  0  0  0  0  0  0  0  0  0
  -86.3971   26.5300    1.9711 N   0  0  0  0  0  0  0  0  0  0  0  0
  -85.4499   30.6350    0.0732 N   0  0  0  0  0  0  0  0  0  0  0  0
  -86.4387   25.7807    1.2541 H   0  0  0  0  0  0  0  0  0  0  0  0
  -87.0420   26.4691    2.7818 H   0  0  0  0  0  0  0  0  0  0  0  0
  -87.5623   30.8854   -1.2473 C   0  0  0  0  0  0  0  0  0  0  0  0
  -87.2653   32.3694   -1.2545 C   0  0  0  0  0  0  0  0  0  0  0  0
  -87.9540   32.9166   -2.3821 O   0  0  0  0  0  0  0  0  0  0  0  0
  -87.4503   34.4499   -4.0162 N   0  0  0  0  0  0  0  0  0  0  0  0
  -87.6531   34.2304   -2.7660 C   0  0  0  0  0  0  0  0  0  0  0  0
  -87.1361   35.7942   -4.4585 C   0  0  0  0  0  0  0  0  0  0  0  0
  -87.6235   36.0080   -5.8970 C   0  0  0  0  0  0  0  0  0  0  0  0
  -89.0668   37.1940   -4.0857 O   0  0  0  0  0  0  0  0  0  0  0  0
  -87.8825   36.7428   -3.5355 C   0  0  0  0  0  0  0  0  0  0  0  0
  -89.7932   36.5775   -3.7761 H   0  0  0  0  0  0  0  0  0  0  0  0
 20 21  1  0  0  0
 21 18  1  0  0  0
 18 19  1  0  0  0
 18 16  1  0  0  0
 16 17  2  0  0  0
 17 15  1  0  0  0
 15 14  1  0  0  0
 14 13  1  0  0  0
 13  1  1  0  0  0
  1  2  1  0  0  0
  2  3  2  0  0  0
  3  4  1  0  0  0
  4  5  1  0  0  0
  5  6  2  0  0  0
  6  7  1  0  0  0
  7  8  2  0  0  0
  8  9  1  0  0  0
  4 10  2  0  0  0
 10  1  1  0  0  0
  8  3  1  0  0  0
 20 22  1  0  0  0
  9 11  1  0  0  0
  9 12  1  0  0  0
M  END
> <minimizedAffinity>
-5.35269

> <CNNscore>
0.5047920346

> <CNNaffinity>
5.3219847679

> <CNN_VS>
2.6864955425

> <CNNaffinity_variance>
0.2529130280

$$$$
[H]c1c(C(=O)N([H])C2([H])C([H])([H])C2([H])[H])sc(-c2nc3c([H])c([H])c(Cl)c([H])c3n2C([H])([H])C(=O)N([H])[C@@]([H])(C([H])([H])C([H])([H])SC([H])([H])[H])C(C([H])([H])[H])(C([H])([H])[H])C([H])([H])[H])c1[H]


 36 39  0  0  0  0  0  0  0  0999 V2000
  -86.7413   28.5015    0.1600 N   0  0  0  0  0  0  0  0  0  0  0  0
  -87.3600   28.0347    1.2210 C   0  0  0  0  0  0  0  0  0  0  0  0
  -86.7973   28.6472    2.3237 N   0  0  0  0  0  0  0  0  0  0  0  0
  -85.8595   29.4655    1.9212 C   0  0  0  0  0  0  0  0  0  0  0  0
  -85.0165   30.3022    2.6542 C   0  0  0  0  0  0  0  0  0  0  0  0
  -84.1160   31.0620    1.9553 C   0  0  0  0  0  0  0  0  0  0  0  0
  -84.0543   30.9935    0.5751 C   0  0  0  0  0  0  0  0  0  0  0  0
  -82.8815   31.9845   -0.3057 Cl  0  0  0  0  0  0  0  0  0  0  0  0
  -84.8966   30.1598   -0.1310 C   0  0  0  0  0  0  0  0  0  0  0  0
  -85.7950   29.4022    0.5728 C   0  0  0  0  0  0  0  0  0  0  0  0
  -88.4714   27.0620    1.3915 C   0  0  0  0  0  0  0  0  0  0  0  0
  -89.7084   26.9384    0.8743 C   0  0  0  0  0  0  0  0  0  0  0  0
  -90.4794   25.9074    1.2578 C   0  0  0  0  0  0  0  0  0  0  0  0
  -89.9607   25.0307    2.1615 C   0  0  0  0  0  0  0  0  0  0  0  0
  -88.4179   25.6738    2.4451 S   0  0  0  0  0  0  0  0  0  0  0  0
  -90.5818   23.8318    2.7375 C   0  0  0  0  0  0  0  0  0  0  0  0
  -91.6035   23.9449    3.4878 O   0  0  0  0  0  0  0  0  0  0  0  0
  -90.0939   22.5383    2.4971 N   0  0  0  0  0  0  0  0  0  0  0  0
  -89.2409   22.4637    1.8691 H   0  0  0  0  0  0  0  0  0  0  0  0
  -90.7188   21.3802    3.0751 C   0  0  0  0  0  0  0  0  0  0  0  0
  -89.6934   20.3081    3.4632 C   0  0  0  0  0  0  0  0  0  0  0  0
  -90.6334   20.1147    2.2920 C   0  0  0  0  0  0  0  0  0  0  0  0
  -86.9721   28.1388   -1.2297 C   0  0  0  0  0  0  0  0  0  0  0  0
  -88.1714   30.3729   -1.4701 N   0  0  0  0  0  0  0  0  0  0  0  0
  -87.6509   29.1734   -2.0238 C   0  0  0  0  0  0  0  0  0  0  0  0
  -87.8029   29.0329   -3.2546 O   0  0  0  0  0  0  0  0  0  0  0  0
  -88.0769   30.5384   -0.4586 H   0  0  0  0  0  0  0  0  0  0  0  0
  -88.8441   31.3966   -2.2616 C   0  0  0  0  0  0  0  0  0  0  0  0
  -88.1581   32.7020   -2.2154 C   0  0  0  0  0  0  0  0  0  0  0  0
  -87.2905   32.9118   -0.9878 C   0  0  0  0  0  0  0  0  0  0  0  0
  -87.1716   32.7271   -3.4300 C   0  0  0  0  0  0  0  0  0  0  0  0
  -89.0215   33.9030   -2.4098 C   0  0  0  0  0  0  0  0  0  0  0  0
  -90.2905   31.3523   -1.8935 C   0  0  0  0  0  0  0  0  0  0  0  0
  -91.2753   31.2344   -3.0082 C   0  0  0  0  0  0  0  0  0  0  0  0
  -91.8892   29.0652   -1.0186 C   0  0  0  0  0  0  0  0  0  0  0  0
  -92.4092   29.8365   -2.5735 S   0  0  0  0  0  0  0  0  0  0  0  0
 35 36  1  0  0  0
 36 34  1  0  0  0
 34 33  1  0  0  0
 33 28  1  0  0  0
 28 24  1  0  0  0
 24 25  1  0  0  0
 25 26  2  0  0  0
 25 23  1  0  0  0
 23  1  1  0  0  0
  1  2  1  0  0  0
  2  3  2  0  0  0
  3  4  1  0  0  0
  4  5  2  0  0  0
  5  6  1  0  0  0
  6  7  2  0  0  0
  7  8  1  0  0  0
  7  9  1  0  0  0
  9 10  2  0  0  0
  2 11  1  0  0  0
 11 12  2  0  0  0
 12 13  1  0  0  0
 13 14  2  0  0  0
 14 15  1  0  0  0
 14 16  1  0  0  0
 16 17  2  0  0  0
 16 18  1  0  0  0
 18 20  1  0  0  0
 20 21  1  0  0  0
 21 22  1  0  0  0
 28 29  1  0  0  0
 29 30  1  0  0  0
 29 31  1  0  0  0
 29 32  1  0  0  0
 10  1  1  0  0  0
 15 11  1  0  0  0
 22 20  1  0  0  0
 10  4  1  0  0  0
 24 27  1  0  0  0
 18 19  1  0  0  0
M  END
> <minimizedAffinity>
-7.95232

> <CNNscore>
0.4122729897

> <CNNaffinity>
7.2222862244

> <CNN_VS>
2.9775536060

> <CNNaffinity_variance>
0.1326759160

$$$$
[H]c1c(C(=O)N([H])C2([H])C([H])([H])C2([H])[H])sc(-c2nc3c([H])c([H])c(Cl)c([H])c3n2C([H])([H])C(=O)N([H])[C@@]([H])(C([H])([H])C([H])([H])SC([H])([H])[H])C(C([H])([H])[H])(C([H])([H])[H])C([H])([H])[H])c1[H]


 36 39  0  0  0  0  0  0  0  0999 V2000
  -86.5635   32.1460   -0.7762 N   0  0  0  0  0  0  0  0  0  0  0  0
  -86.3357   33.1798   -1.5546 C   0  0  0  0  0  0  0  0  0  0  0  0
  -84.9882   33.4691   -1.4643 N   0  0  0  0  0  0  0  0  0  0  0  0
  -84.4261   32.6183   -0.6450 C   0  0  0  0  0  0  0  0  0  0  0  0
  -83.0967   32.5034   -0.2359 C   0  0  0  0  0  0  0  0  0  0  0  0
  -82.7904   31.4988    0.6438 C   0  0  0  0  0  0  0  0  0  0  0  0
  -83.7709   30.6373    1.1020 C   0  0  0  0  0  0  0  0  0  0  0  0
  -83.3507   29.3474    2.2390 Cl  0  0  0  0  0  0  0  0  0  0  0  0
  -85.0795   30.7679    0.6853 C   0  0  0  0  0  0  0  0  0  0  0  0
  -85.3803   31.7741   -0.1941 C   0  0  0  0  0  0  0  0  0  0  0  0
  -87.2165   33.9871   -2.4393 C   0  0  0  0  0  0  0  0  0  0  0  0
  -87.0136   34.9820   -3.3236 C   0  0  0  0  0  0  0  0  0  0  0  0
  -88.0660   35.5069   -3.9728 C   0  0  0  0  0  0  0  0  0  0  0  0
  -89.2982   34.9971   -3.6976 C   0  0  0  0  0  0  0  0  0  0  0  0
  -88.9473   33.8050   -2.5443 S   0  0  0  0  0  0  0  0  0  0  0  0
  -90.5975   35.3818   -4.2623 C   0  0  0  0  0  0  0  0  0  0  0  0
  -90.9316   34.9738   -5.4205 O   0  0  0  0  0  0  0  0  0  0  0  0
  -91.5097   36.1956   -3.5735 N   0  0  0  0  0  0  0  0  0  0  0  0
  -91.2136   36.5266   -2.6089 H   0  0  0  0  0  0  0  0  0  0  0  0
  -92.7750   36.5602   -4.1494 C   0  0  0  0  0  0  0  0  0  0  0  0
  -93.1123   38.0363   -3.9069 C   0  0  0  0  0  0  0  0  0  0  0  0
  -93.8610   36.9281   -3.1969 C   0  0  0  0  0  0  0  0  0  0  0  0
  -87.8376   31.4895   -0.5276 C   0  0  0  0  0  0  0  0  0  0  0  0
  -88.7993   29.1668   -0.9371 N   0  0  0  0  0  0  0  0  0  0  0  0
  -88.0945   30.3180   -1.3781 C   0  0  0  0  0  0  0  0  0  0  0  0
  -87.6889   30.2874   -2.5580 O   0  0  0  0  0  0  0  0  0  0  0  0
  -89.1529   29.1372    0.0290 H   0  0  0  0  0  0  0  0  0  0  0  0
  -89.0520   28.0069   -1.7843 C   0  0  0  0  0  0  0  0  0  0  0  0
  -90.4779   27.8452   -2.1271 C   0  0  0  0  0  0  0  0  0  0  0  0
  -91.0101   28.8797   -3.1019 C   0  0  0  0  0  0  0  0  0  0  0  0
  -90.6020   26.4730   -2.8692 C   0  0  0  0  0  0  0  0  0  0  0  0
  -91.4200   27.7343   -0.9756 C   0  0  0  0  0  0  0  0  0  0  0  0
  -88.3463   26.8486   -1.1599 C   0  0  0  0  0  0  0  0  0  0  0  0
  -87.9706   26.9729    0.2788 C   0  0  0  0  0  0  0  0  0  0  0  0
  -89.7364   24.5414    0.1772 C   0  0  0  0  0  0  0  0  0  0  0  0
  -89.1297   25.8860    1.2294 S   0  0  0  0  0  0  0  0  0  0  0  0
 35 36  1  0  0  0
 36 34  1  0  0  0
 34 33  1  0  0  0
 33 28  1  0  0  0
 28 24  1  0  0  0
 24 25  1  0  0  0
 25 26  2  0  0  0
 25 23  1  0  0  0
 23  1  1  0  0  0
  1  2  1  0  0  0
  2  3  2  0  0  0
  3  4  1  0  0  0
  4  5  2  0  0  0
  5  6  1  0  0  0
  6  7  2  0  0  0
  7  8  1  0  0  0
  7  9  1  0  0  0
  9 10  2  0  0  0
  2 11  1  0  0  0
 11 12  2  0  0  0
 12 13  1  0  0  0
 13 14  2  0  0  0
 14 15  1  0  0  0
 14 16  1  0  0  0
 16 17  2  0  0  0
 16 18  1  0  0  0
 18 20  1  0  0  0
 20 21  1  0  0  0
 21 22  1  0  0  0
 28 29  1  0  0  0
 29 30  1  0  0  0
 29 31  1  0  0  0
 29 32  1  0  0  0
 10  1  1  0  0  0
 15 11  1  0  0  0
 22 20  1  0  0  0
 10  4  1  0  0  0
 24 27  1  0  0  0
 18 19  1  0  0  0
M  END
> <minimizedAffinity>
-7.68677

> <CNNscore>
0.3195303082

> <CNNaffinity>
7.1329178810

> <CNN_VS>
2.2791833878

> <CNNaffinity_variance>
0.1171122789

$$$$
[H]c1c(C(=O)N([H])C2([H])C([H])([H])C2([H])[H])sc(-c2nc3c([H])c([H])c(Cl)c([H])c3n2C([H])([H])C(=O)N([H])[C@@]([H])(C([H])([H])C([H])([H])SC([H])([H])[H])C(C([H])([H])[H])(C([H])([H])[H])C([H])([H])[H])c1[H]


 36 39  0  0  0  0  0  0  0  0999 V2000
  -89.3591   27.9079    0.5820 N   0  0  0  0  0  0  0  0  0  0  0  0
  -90.2258   28.8697    0.3574 C   0  0  0  0  0  0  0  0  0  0  0  0
  -91.0320   28.9613    1.4751 N   0  0  0  0  0  0  0  0  0  0  0  0
  -90.6476   28.0673    2.3492 C   0  0  0  0  0  0  0  0  0  0  0  0
  -91.1454   27.7755    3.6200 C   0  0  0  0  0  0  0  0  0  0  0  0
  -90.5342   26.7713    4.3234 C   0  0  0  0  0  0  0  0  0  0  0  0
  -89.4647   26.0800    3.7835 C   0  0  0  0  0  0  0  0  0  0  0  0
  -88.6919   24.7858    4.7115 Cl  0  0  0  0  0  0  0  0  0  0  0  0
  -88.9875   26.3838    2.5253 C   0  0  0  0  0  0  0  0  0  0  0  0
  -89.6024   27.3886    1.8262 C   0  0  0  0  0  0  0  0  0  0  0  0
  -90.4334   29.7894   -0.7921 C   0  0  0  0  0  0  0  0  0  0  0  0
  -91.4194   29.9738   -1.6903 C   0  0  0  0  0  0  0  0  0  0  0  0
  -91.2807   30.9232   -2.6304 C   0  0  0  0  0  0  0  0  0  0  0  0
  -90.1344   31.6580   -2.6239 C   0  0  0  0  0  0  0  0  0  0  0  0
  -89.2904   31.0003   -1.3088 S   0  0  0  0  0  0  0  0  0  0  0  0
  -89.7366   32.7459   -3.5258 C   0  0  0  0  0  0  0  0  0  0  0  0
  -89.0270   32.4922   -4.5512 O   0  0  0  0  0  0  0  0  0  0  0  0
  -90.1079   34.0815   -3.3085 N   0  0  0  0  0  0  0  0  0  0  0  0
  -90.6995   34.2740   -2.4480 H   0  0  0  0  0  0  0  0  0  0  0  0
  -89.7035   35.1292   -4.2055 C   0  0  0  0  0  0  0  0  0  0  0  0
  -88.7905   36.1523   -3.5190 C   0  0  0  0  0  0  0  0  0  0  0  0
  -90.2129   36.4978   -3.9065 C   0  0  0  0  0  0  0  0  0  0  0  0
  -88.3178   27.4286   -0.3136 C   0  0  0  0  0  0  0  0  0  0  0  0
  -86.5661   28.8937    0.8143 N   0  0  0  0  0  0  0  0  0  0  0  0
  -87.1049   28.2593   -0.3361 C   0  0  0  0  0  0  0  0  0  0  0  0
  -86.4823   28.4471   -1.4014 O   0  0  0  0  0  0  0  0  0  0  0  0
  -87.0421   28.7754    1.7191 H   0  0  0  0  0  0  0  0  0  0  0  0
  -85.3624   29.7168    0.7874 C   0  0  0  0  0  0  0  0  0  0  0  0
  -84.4366   29.4178    1.8966 C   0  0  0  0  0  0  0  0  0  0  0  0
  -83.0064   29.8670    1.6585 C   0  0  0  0  0  0  0  0  0  0  0  0
  -84.9339   30.2499    3.1250 C   0  0  0  0  0  0  0  0  0  0  0  0
  -84.4273   28.0064    2.3797 C   0  0  0  0  0  0  0  0  0  0  0  0
  -85.8053   31.1314    0.6070 C   0  0  0  0  0  0  0  0  0  0  0  0
  -84.9578   32.0077   -0.2533 C   0  0  0  0  0  0  0  0  0  0  0  0
  -86.2947   33.5244   -2.4788 C   0  0  0  0  0  0  0  0  0  0  0  0
  -85.9883   33.4818   -0.6934 S   0  0  0  0  0  0  0  0  0  0  0  0
 35 36  1  0  0  0
 36 34  1  0  0  0
 34 33  1  0  0  0
 33 28  1  0  0  0
 28 24  1  0  0  0
 24 25  1  0  0  0
 25 26  2  0  0  0
 25 23  1  0  0  0
 23  1  1  0  0  0
  1  2  1  0  0  0
  2  3  2  0  0  0
  3  4  1  0  0  0
  4  5  2  0  0  0
  5  6  1  0  0  0
  6  7  2  0  0  0
  7  8  1  0  0  0
  7  9  1  0  0  0
  9 10  2  0  0  0
  2 11  1  0  0  0
 11 12  2  0  0  0
 12 13  1  0  0  0
 13 14  2  0  0  0
 14 15  1  0  0  0
 14 16  1  0  0  0
 16 17  2  0  0  0
 16 18  1  0  0  0
 18 20  1  0  0  0
 20 21  1  0  0  0
 21 22  1  0  0  0
 28 29  1  0  0  0
 29 30  1  0  0  0
 29 31  1  0  0  0
 29 32  1  0  0  0
 10  1  1  0  0  0
 15 11  1  0  0  0
 22 20  1  0  0  0
 10  4  1  0  0  0
 24 27  1  0  0  0
 18 19  1  0  0  0
M  END
> <minimizedAffinity>
-8.35176

> <CNNscore>
0.3127919137

> <CNNaffinity>
7.0321455002

> <CNN_VS>
2.1995983124

> <CNNaffinity_variance>
0.6661937833

$$$$
[H]c1c(C(=O)N([H])C2([H])C([H])([H])C2([H])[H])sc(-c2nc3c([H])c([H])c(Cl)c([H])c3n2C([H])([H])C(=O)N([H])[C@@]([H])(C([H])([H])C([H])([H])SC([H])([H])[H])C(C([H])([H])[H])(C([H])([H])[H])C([H])([H])[H])c1[H]


 36 39  0  0  0  0  0  0  0  0999 V2000
  -86.5486   31.9307   -0.8214 N   0  0  0  0  0  0  0  0  0  0  0  0
  -86.3387   32.9737   -1.5926 C   0  0  0  0  0  0  0  0  0  0  0  0
  -85.0094   33.3221   -1.4542 N   0  0  0  0  0  0  0  0  0  0  0  0
  -84.4403   32.4968   -0.6140 C   0  0  0  0  0  0  0  0  0  0  0  0
  -83.1227   32.4405   -0.1570 C   0  0  0  0  0  0  0  0  0  0  0  0
  -82.8044   31.4503    0.7345 C   0  0  0  0  0  0  0  0  0  0  0  0
  -83.7619   30.5463    1.1583 C   0  0  0  0  0  0  0  0  0  0  0  0
  -83.3265   29.2760    2.3116 Cl  0  0  0  0  0  0  0  0  0  0  0  0
  -85.0591   30.6191    0.6945 C   0  0  0  0  0  0  0  0  0  0  0  0
  -85.3720   31.6112   -0.1966 C   0  0  0  0  0  0  0  0  0  0  0  0
  -87.2218   33.7416   -2.5096 C   0  0  0  0  0  0  0  0  0  0  0  0
  -87.6642   35.0125   -2.5534 C   0  0  0  0  0  0  0  0  0  0  0  0
  -88.4795   35.3888   -3.5525 C   0  0  0  0  0  0  0  0  0  0  0  0
  -88.8189   34.4514   -4.4799 C   0  0  0  0  0  0  0  0  0  0  0  0
  -87.9907   33.0791   -3.9273 S   0  0  0  0  0  0  0  0  0  0  0  0
  -89.6799   34.5976   -5.6599 C   0  0  0  0  0  0  0  0  0  0  0  0
  -90.2599   33.5774   -6.1522 O   0  0  0  0  0  0  0  0  0  0  0  0
  -89.9000   35.8338   -6.2863 N   0  0  0  0  0  0  0  0  0  0  0  0
  -89.4077   36.6734   -5.8617 H   0  0  0  0  0  0  0  0  0  0  0  0
  -90.7460   35.9501   -7.4423 C   0  0  0  0  0  0  0  0  0  0  0  0
  -90.1667   36.9161   -8.4829 C   0  0  0  0  0  0  0  0  0  0  0  0
  -91.3908   37.2752   -7.6671 C   0  0  0  0  0  0  0  0  0  0  0  0
  -87.8007   31.2186   -0.6180 C   0  0  0  0  0  0  0  0  0  0  0  0
  -88.2232   28.7181   -0.3819 N   0  0  0  0  0  0  0  0  0  0  0  0
  -87.8113   29.8448   -1.1415 C   0  0  0  0  0  0  0  0  0  0  0  0
  -87.4453   29.6069   -2.3108 O   0  0  0  0  0  0  0  0  0  0  0  0
  -88.5315   28.8566    0.5903 H   0  0  0  0  0  0  0  0  0  0  0  0
  -88.2322   27.3568   -0.9053 C   0  0  0  0  0  0  0  0  0  0  0  0
  -89.5830   26.8915   -1.2736 C   0  0  0  0  0  0  0  0  0  0  0  0
  -89.9621   27.1477   -2.7208 C   0  0  0  0  0  0  0  0  0  0  0  0
  -89.5731   25.3345   -1.1165 C   0  0  0  0  0  0  0  0  0  0  0  0
  -90.6965   27.3494   -0.3925 C   0  0  0  0  0  0  0  0  0  0  0  0
  -87.4374   26.5199    0.0420 C   0  0  0  0  0  0  0  0  0  0  0  0
  -87.2398   27.0516    1.4220 C   0  0  0  0  0  0  0  0  0  0  0  0
  -89.4349   27.5292    3.4205 C   0  0  0  0  0  0  0  0  0  0  0  0
  -88.5327   26.2642    2.4882 S   0  0  0  0  0  0  0  0  0  0  0  0
 35 36  1  0  0  0
 36 34  1  0  0  0
 34 33  1  0  0  0
 33 28  1  0  0  0
 28 24  1  0  0  0
 24 25  1  0  0  0
 25 26  2  0  0  0
 25 23  1  0  0  0
 23  1  1  0  0  0
  1  2  1  0  0  0
  2  3  2  0  0  0
  3  4  1  0  0  0
  4  5  2  0  0  0
  5  6  1  0  0  0
  6  7  2  0  0  0
  7  8  1  0  0  0
  7  9  1  0  0  0
  9 10  2  0  0  0
  2 11  1  0  0  0
 11 12  2  0  0  0
 12 13  1  0  0  0
 13 14  2  0  0  0
 14 15  1  0  0  0
 14 16  1  0  0  0
 16 17  2  0  0  0
 16 18  1  0  0  0
 18 20  1  0  0  0
 20 21  1  0  0  0
 21 22  1  0  0  0
 28 29  1  0  0  0
 29 30  1  0  0  0
 29 31  1  0  0  0
 29 32  1  0  0  0
 10  1  1  0  0  0
 15 11  1  0  0  0
 22 20  1  0  0  0
 10  4  1  0  0  0
 24 27  1  0  0  0
 18 19  1  0  0  0
M  END
> <minimizedAffinity>
-7.63096

> <CNNscore>
0.2919802070

> <CNNaffinity>
7.0787339211

> <CNN_VS>
2.0668501854

> <CNNaffinity_variance>
0.1106501594

$$$$
[H]c1c(C(=O)N([H])C2([H])C([H])([H])C2([H])[H])sc(-c2nc3c([H])c([H])c(Cl)c([H])c3n2C([H])([H])C(=O)N([H])[C@@]([H])(C([H])([H])C([H])([H])SC([H])([H])[H])C(C([H])([H])[H])(C([H])([H])[H])C([H])([H])[H])c1[H]


 36 39  0  0  0  0  0  0  0  0999 V2000
  -86.7464   30.8983   -0.8765 N   0  0  0  0  0  0  0  0  0  0  0  0
  -86.6142   32.1959   -1.0351 C   0  0  0  0  0  0  0  0  0  0  0  0
  -85.6751   32.6252   -0.1178 N   0  0  0  0  0  0  0  0  0  0  0  0
  -85.2566   31.5965    0.5732 C   0  0  0  0  0  0  0  0  0  0  0  0
  -84.3182   31.5231    1.6037 C   0  0  0  0  0  0  0  0  0  0  0  0
  -84.0744   30.2909    2.1505 C   0  0  0  0  0  0  0  0  0  0  0  0
  -84.7398   29.1691    1.6898 C   0  0  0  0  0  0  0  0  0  0  0  0
  -84.4083   27.5878    2.4128 Cl  0  0  0  0  0  0  0  0  0  0  0  0
  -85.6641   29.2629    0.6699 C   0  0  0  0  0  0  0  0  0  0  0  0
  -85.9042   30.4974    0.1270 C   0  0  0  0  0  0  0  0  0  0  0  0
  -87.2448   33.1653   -1.9694 C   0  0  0  0  0  0  0  0  0  0  0  0
  -86.8834   34.3560   -2.4837 C   0  0  0  0  0  0  0  0  0  0  0  0
  -87.7182   34.9870   -3.3259 C   0  0  0  0  0  0  0  0  0  0  0  0
  -88.9013   34.3796   -3.6181 C   0  0  0  0  0  0  0  0  0  0  0  0
  -88.8090   32.9514   -2.7092 S   0  0  0  0  0  0  0  0  0  0  0  0
  -89.9783   34.8448   -4.5006 C   0  0  0  0  0  0  0  0  0  0  0  0
  -90.9314   35.5413   -4.0253 O   0  0  0  0  0  0  0  0  0  0  0  0
  -90.0102   34.5529   -5.8727 N   0  0  0  0  0  0  0  0  0  0  0  0
  -89.2069   33.9706   -6.2512 H   0  0  0  0  0  0  0  0  0  0  0  0
  -91.0776   35.0184   -6.7152 C   0  0  0  0  0  0  0  0  0  0  0  0
  -91.1845   34.2032   -8.0096 C   0  0  0  0  0  0  0  0  0  0  0  0
  -90.6829   35.6319   -8.0152 C   0  0  0  0  0  0  0  0  0  0  0  0
  -87.6353   30.0044   -1.6024 C   0  0  0  0  0  0  0  0  0  0  0  0
  -88.7319   27.9211   -0.6306 N   0  0  0  0  0  0  0  0  0  0  0  0
  -88.6387   29.3316   -0.7644 C   0  0  0  0  0  0  0  0  0  0  0  0
  -89.4760   29.9947   -0.1186 O   0  0  0  0  0  0  0  0  0  0  0  0
  -88.0682   27.3255   -1.1447 H   0  0  0  0  0  0  0  0  0  0  0  0
  -89.7289   27.2579    0.2019 C   0  0  0  0  0  0  0  0  0  0  0  0
  -89.1438   26.6011    1.3865 C   0  0  0  0  0  0  0  0  0  0  0  0
  -89.8683   25.3427    1.8282 C   0  0  0  0  0  0  0  0  0  0  0  0
  -87.7109   26.1303    0.9691 C   0  0  0  0  0  0  0  0  0  0  0  0
  -88.9193   27.4739    2.5754 C   0  0  0  0  0  0  0  0  0  0  0  0
  -90.5782   26.4330   -0.7080 C   0  0  0  0  0  0  0  0  0  0  0  0
  -89.9284   25.8766   -1.9304 C   0  0  0  0  0  0  0  0  0  0  0  0
  -91.5279   23.3779   -2.4189 C   0  0  0  0  0  0  0  0  0  0  0  0
  -89.9699   24.0328   -1.7653 S   0  0  0  0  0  0  0  0  0  0  0  0
 35 36  1  0  0  0
 36 34  1  0  0  0
 34 33  1  0  0  0
 33 28  1  0  0  0
 28 24  1  0  0  0
 24 25  1  0  0  0
 25 26  2  0  0  0
 25 23  1  0  0  0
 23  1  1  0  0  0
  1  2  1  0  0  0
  2  3  2  0  0  0
  3  4  1  0  0  0
  4  5  2  0  0  0
  5  6  1  0  0  0
  6  7  2  0  0  0
  7  8  1  0  0  0
  7  9  1  0  0  0
  9 10  2  0  0  0
  2 11  1  0  0  0
 11 12  2  0  0  0
 12 13  1  0  0  0
 13 14  2  0  0  0
 14 15  1  0  0  0
 14 16  1  0  0  0
 16 17  2  0  0  0
 16 18  1  0  0  0
 18 20  1  0  0  0
 20 21  1  0  0  0
 21 22  1  0  0  0
 28 29  1  0  0  0
 29 30  1  0  0  0
 29 31  1  0  0  0
 29 32  1  0  0  0
 10  1  1  0  0  0
 15 11  1  0  0  0
 22 20  1  0  0  0
 10  4  1  0  0  0
 24 27  1  0  0  0
 18 19  1  0  0  0
M  END
> <minimizedAffinity>
-7.69807

> <CNNscore>
0.2606531382

> <CNNaffinity>
7.0632753372

> <CNN_VS>
1.8410649300

> <CNNaffinity_variance>
0.1395066679

$$$$
[H]c1c(C(=O)N([H])C2([H])C([H])([H])C2([H])[H])sc(-c2nc3c([H])c([H])c(Cl)c([H])c3n2C([H])([H])C(=O)N([H])[C@@]([H])(C([H])([H])C([H])([H])SC([H])([H])[H])C(C([H])([H])[H])(C([H])([H])[H])C([H])([H])[H])c1[H]


 36 39  0  0  0  0  0  0  0  0999 V2000
  -86.6499   30.5970   -0.6798 N   0  0  0  0  0  0  0  0  0  0  0  0
  -86.6928   31.8900   -0.9096 C   0  0  0  0  0  0  0  0  0  0  0  0
  -85.7485   32.4809   -0.0930 N   0  0  0  0  0  0  0  0  0  0  0  0
  -85.1544   31.5510    0.6094 C   0  0  0  0  0  0  0  0  0  0  0  0
  -84.1395   31.6501    1.5623 C   0  0  0  0  0  0  0  0  0  0  0  0
  -83.7035   30.4893    2.1449 C   0  0  0  0  0  0  0  0  0  0  0  0
  -84.2565   29.2711    1.7933 C   0  0  0  0  0  0  0  0  0  0  0  0
  -83.6770   27.7850    2.5606 Cl  0  0  0  0  0  0  0  0  0  0  0  0
  -85.2591   29.1946    0.8488 C   0  0  0  0  0  0  0  0  0  0  0  0
  -85.6914   30.3583    0.2696 C   0  0  0  0  0  0  0  0  0  0  0  0
  -87.5078   32.7215   -1.8341 C   0  0  0  0  0  0  0  0  0  0  0  0
  -88.7505   33.2386   -1.7954 C   0  0  0  0  0  0  0  0  0  0  0  0
  -89.1907   33.9657   -2.8356 C   0  0  0  0  0  0  0  0  0  0  0  0
  -88.3444   34.1431   -3.8875 C   0  0  0  0  0  0  0  0  0  0  0  0
  -86.9658   33.2906   -3.3905 S   0  0  0  0  0  0  0  0  0  0  0  0
  -88.5708   34.8882   -5.1318 C   0  0  0  0  0  0  0  0  0  0  0  0
  -89.6683   34.7525   -5.7616 O   0  0  0  0  0  0  0  0  0  0  0  0
  -87.6160   35.7620   -5.6739 N   0  0  0  0  0  0  0  0  0  0  0  0
  -86.7066   35.8621   -5.1349 H   0  0  0  0  0  0  0  0  0  0  0  0
  -87.8611   36.4784   -6.8955 C   0  0  0  0  0  0  0  0  0  0  0  0
  -86.8385   37.5991   -7.1190 C   0  0  0  0  0  0  0  0  0  0  0  0
  -88.2781   37.9033   -6.7617 C   0  0  0  0  0  0  0  0  0  0  0  0
  -87.4722   29.5626   -1.2880 C   0  0  0  0  0  0  0  0  0  0  0  0
  -88.6090   27.7386    0.0787 N   0  0  0  0  0  0  0  0  0  0  0  0
  -88.5561   29.0636   -0.4290 C   0  0  0  0  0  0  0  0  0  0  0  0
  -89.5035   29.8080   -0.1033 O   0  0  0  0  0  0  0  0  0  0  0  0
  -87.8548   27.0809   -0.1620 H   0  0  0  0  0  0  0  0  0  0  0  0
  -89.6862   27.2478    0.9307 C   0  0  0  0  0  0  0  0  0  0  0  0
  -89.2027   26.7136    2.2183 C   0  0  0  0  0  0  0  0  0  0  0  0
  -89.6299   27.5189    3.4318 C   0  0  0  0  0  0  0  0  0  0  0  0
  -89.8722   25.3102    2.3948 C   0  0  0  0  0  0  0  0  0  0  0  0
  -87.7382   26.4433    2.3068 C   0  0  0  0  0  0  0  0  0  0  0  0
  -90.5442   26.3661    0.0847 C   0  0  0  0  0  0  0  0  0  0  0  0
  -91.6628   27.0137   -0.6607 C   0  0  0  0  0  0  0  0  0  0  0  0
  -91.5492   28.6668   -3.1697 C   0  0  0  0  0  0  0  0  0  0  0  0
  -91.1650   27.0517   -2.4438 S   0  0  0  0  0  0  0  0  0  0  0  0
 35 36  1  0  0  0
 36 34  1  0  0  0
 34 33  1  0  0  0
 33 28  1  0  0  0
 28 24  1  0  0  0
 24 25  1  0  0  0
 25 26  2  0  0  0
 25 23  1  0  0  0
 23  1  1  0  0  0
  1  2  1  0  0  0
  2  3  2  0  0  0
  3  4  1  0  0  0
  4  5  2  0  0  0
  5  6  1  0  0  0
  6  7  2  0  0  0
  7  8  1  0  0  0
  7  9  1  0  0  0
  9 10  2  0  0  0
  2 11  1  0  0  0
 11 12  2  0  0  0
 12 13  1  0  0  0
 13 14  2  0  0  0
 14 15  1  0  0  0
 14 16  1  0  0  0
 16 17  2  0  0  0
 16 18  1  0  0  0
 18 20  1  0  0  0
 20 21  1  0  0  0
 21 22  1  0  0  0
 28 29  1  0  0  0
 29 30  1  0  0  0
 29 31  1  0  0  0
 29 32  1  0  0  0
 10  1  1  0  0  0
 15 11  1  0  0  0
 22 20  1  0  0  0
 10  4  1  0  0  0
 24 27  1  0  0  0
 18 19  1  0  0  0
M  END
> <minimizedAffinity>
-7.86885

> <CNNscore>
0.2364123166

> <CNNaffinity>
7.0613112450

> <CNN_VS>
1.6693809032

> <CNNaffinity_variance>
0.1709033698

$$$$
[H]c1c(C(=O)N([H])C2([H])C([H])([H])C2([H])[H])sc(-c2nc3c([H])c([H])c(Cl)c([H])c3n2C([H])([H])C(=O)N([H])[C@@]([H])(C([H])([H])C([H])([H])SC([H])([H])[H])C(C([H])([H])[H])(C([H])([H])[H])C([H])([H])[H])c1[H]


 36 39  0  0  0  0  0  0  0  0999 V2000
  -86.8780   29.0548   -0.0095 N   0  0  0  0  0  0  0  0  0  0  0  0
  -87.3909   28.3328    0.9612 C   0  0  0  0  0  0  0  0  0  0  0  0
  -86.5830   28.5052    2.0682 N   0  0  0  0  0  0  0  0  0  0  0  0
  -85.6066   29.3182    1.7576 C   0  0  0  0  0  0  0  0  0  0  0  0
  -84.5478   29.7942    2.5324 C   0  0  0  0  0  0  0  0  0  0  0  0
  -83.6613   30.6503    1.9342 C   0  0  0  0  0  0  0  0  0  0  0  0
  -83.8204   31.0215    0.6111 C   0  0  0  0  0  0  0  0  0  0  0  0
  -82.6613   32.1285   -0.1400 Cl  0  0  0  0  0  0  0  0  0  0  0  0
  -84.8740   30.5397   -0.1378 C   0  0  0  0  0  0  0  0  0  0  0  0
  -85.7574   29.6839    0.4653 C   0  0  0  0  0  0  0  0  0  0  0  0
  -88.5950   27.4646    1.0419 C   0  0  0  0  0  0  0  0  0  0  0  0
  -89.9131   27.6873    1.2037 C   0  0  0  0  0  0  0  0  0  0  0  0
  -90.7557   26.6417    1.2346 C   0  0  0  0  0  0  0  0  0  0  0  0
  -90.2238   25.3956    1.0985 C   0  0  0  0  0  0  0  0  0  0  0  0
  -88.5690   25.7247    0.9327 S   0  0  0  0  0  0  0  0  0  0  0  0
  -90.9128   24.0994    1.0927 C   0  0  0  0  0  0  0  0  0  0  0  0
  -92.0474   23.9867    0.5275 O   0  0  0  0  0  0  0  0  0  0  0  0
  -90.3708   22.9527    1.6930 N   0  0  0  0  0  0  0  0  0  0  0  0
  -89.4238   23.0660    2.1598 H   0  0  0  0  0  0  0  0  0  0  0  0
  -91.0667   21.6953    1.6757 C   0  0  0  0  0  0  0  0  0  0  0  0
  -90.1911   20.5473    2.1921 C   0  0  0  0  0  0  0  0  0  0  0  0
  -90.5578   20.6636    0.7277 C   0  0  0  0  0  0  0  0  0  0  0  0
  -87.3680   29.1788   -1.3736 C   0  0  0  0  0  0  0  0  0  0  0  0
  -89.5002   29.9150   -2.5563 N   0  0  0  0  0  0  0  0  0  0  0  0
  -88.5373   30.0576   -1.5224 C   0  0  0  0  0  0  0  0  0  0  0  0
  -88.7351   30.9943   -0.7217 O   0  0  0  0  0  0  0  0  0  0  0  0
  -89.3838   29.1609   -3.2469 H   0  0  0  0  0  0  0  0  0  0  0  0
  -90.6588   30.7890   -2.7001 C   0  0  0  0  0  0  0  0  0  0  0  0
  -91.9347   30.0494   -2.7458 C   0  0  0  0  0  0  0  0  0  0  0  0
  -91.9628   28.9080   -3.7458 C   0  0  0  0  0  0  0  0  0  0  0  0
  -92.1070   29.3769   -1.3433 C   0  0  0  0  0  0  0  0  0  0  0  0
  -93.1649   30.8755   -2.9183 C   0  0  0  0  0  0  0  0  0  0  0  0
  -90.3568   31.7336   -3.8164 C   0  0  0  0  0  0  0  0  0  0  0  0
  -89.6897   33.0200   -3.4606 C   0  0  0  0  0  0  0  0  0  0  0  0
  -86.7647   33.2097   -2.7904 C   0  0  0  0  0  0  0  0  0  0  0  0
  -87.9622   32.9262   -4.1205 S   0  0  0  0  0  0  0  0  0  0  0  0
 35 36  1  0  0  0
 36 34  1  0  0  0
 34 33  1  0  0  0
 33 28  1  0  0  0
 28 24  1  0  0  0
 24 25  1  0  0  0
 25 26  2  0  0  0
 25 23  1  0  0  0
 23  1  1  0  0  0
  1  2  1  0  0  0
  2  3  2  0  0  0
  3  4  1  0  0  0
  4  5  2  0  0  0
  5  6  1  0  0  0
  6  7  2  0  0  0
  7  8  1  0  0  0
  7  9  1  0  0  0
  9 10  2  0  0  0
  2 11  1  0  0  0
 11 12  2  0  0  0
 12 13  1  0  0  0
 13 14  2  0  0  0
 14 15  1  0  0  0
 14 16  1  0  0  0
 16 17  2  0  0  0
 16 18  1  0  0  0
 18 20  1  0  0  0
 20 21  1  0  0  0
 21 22  1  0  0  0
 28 29  1  0  0  0
 29 30  1  0  0  0
 29 31  1  0  0  0
 29 32  1  0  0  0
 10  1  1  0  0  0
 15 11  1  0  0  0
 22 20  1  0  0  0
 10  4  1  0  0  0
 24 27  1  0  0  0
 18 19  1  0  0  0
M  END
> <minimizedAffinity>
-7.03548

> <CNNscore>
0.2030358016

> <CNNaffinity>
6.7655725479

> <CNN_VS>
1.3736534119

> <CNNaffinity_variance>
0.1961825043

$$$$
[H]c1c(C(=O)N([H])C2([H])C([H])([H])C2([H])[H])sc(-c2nc3c([H])c([H])c(Cl)c([H])c3n2C([H])([H])C(=O)N([H])[C@@]([H])(C([H])([H])C([H])([H])SC([H])([H])[H])C(C([H])([H])[H])(C([H])([H])[H])C([H])([H])[H])c1[H]


 36 39  0  0  0  0  0  0  0  0999 V2000
  -87.6043   33.2393   -3.8031 N   0  0  0  0  0  0  0  0  0  0  0  0
  -87.0811   33.7736   -2.7227 C   0  0  0  0  0  0  0  0  0  0  0  0
  -87.6144   35.0413   -2.5955 N   0  0  0  0  0  0  0  0  0  0  0  0
  -88.4421   35.2541   -3.5857 C   0  0  0  0  0  0  0  0  0  0  0  0
  -89.2182   36.3739   -3.8883 C   0  0  0  0  0  0  0  0  0  0  0  0
  -90.0068   36.3134   -5.0069 C   0  0  0  0  0  0  0  0  0  0  0  0
  -90.0243   35.1792   -5.7986 C   0  0  0  0  0  0  0  0  0  0  0  0
  -91.0510   35.1252   -7.2396 Cl  0  0  0  0  0  0  0  0  0  0  0  0
  -89.2496   34.0825   -5.4822 C   0  0  0  0  0  0  0  0  0  0  0  0
  -88.4628   34.1485   -4.3628 C   0  0  0  0  0  0  0  0  0  0  0  0
  -86.1165   33.2631   -1.7131 C   0  0  0  0  0  0  0  0  0  0  0  0
  -84.8048   33.4541   -1.4763 C   0  0  0  0  0  0  0  0  0  0  0  0
  -84.2247   32.8154   -0.4467 C   0  0  0  0  0  0  0  0  0  0  0  0
  -85.0057   31.9981    0.3124 C   0  0  0  0  0  0  0  0  0  0  0  0
  -86.5200   32.1480   -0.4351 S   0  0  0  0  0  0  0  0  0  0  0  0
  -84.6288   31.1963    1.4828 C   0  0  0  0  0  0  0  0  0  0  0  0
  -84.5061   31.7533    2.6205 O   0  0  0  0  0  0  0  0  0  0  0  0
  -84.3912   29.8153    1.4082 N   0  0  0  0  0  0  0  0  0  0  0  0
  -84.4980   29.3681    0.4510 H   0  0  0  0  0  0  0  0  0  0  0  0
  -84.0210   29.0529    2.5689 C   0  0  0  0  0  0  0  0  0  0  0  0
  -82.7305   28.2554    2.3443 C   0  0  0  0  0  0  0  0  0  0  0  0
  -84.0769   27.5689    2.4387 C   0  0  0  0  0  0  0  0  0  0  0  0
  -87.3334   31.9225   -4.3590 C   0  0  0  0  0  0  0  0  0  0  0  0
  -88.4388   30.2070   -2.8351 N   0  0  0  0  0  0  0  0  0  0  0  0
  -88.3619   30.9142   -4.0641 C   0  0  0  0  0  0  0  0  0  0  0  0
  -89.2347   30.6297   -4.9097 O   0  0  0  0  0  0  0  0  0  0  0  0
  -87.7412   30.3997   -2.1033 H   0  0  0  0  0  0  0  0  0  0  0  0
  -89.4610   29.2075   -2.5468 C   0  0  0  0  0  0  0  0  0  0  0  0
  -90.5249   29.7131   -1.6583 C   0  0  0  0  0  0  0  0  0  0  0  0
  -91.0491   28.6935   -0.6638 C   0  0  0  0  0  0  0  0  0  0  0  0
  -89.8776   30.8438   -0.7914 C   0  0  0  0  0  0  0  0  0  0  0  0
  -91.6814   30.3732   -2.3311 C   0  0  0  0  0  0  0  0  0  0  0  0
  -88.7486   27.9581   -2.1454 C   0  0  0  0  0  0  0  0  0  0  0  0
  -87.3231   28.0901   -1.7249 C   0  0  0  0  0  0  0  0  0  0  0  0
  -87.5903   26.2874    0.6666 C   0  0  0  0  0  0  0  0  0  0  0  0
  -87.3002   27.9917    0.1240 S   0  0  0  0  0  0  0  0  0  0  0  0
 35 36  1  0  0  0
 36 34  1  0  0  0
 34 33  1  0  0  0
 33 28  1  0  0  0
 28 24  1  0  0  0
 24 25  1  0  0  0
 25 26  2  0  0  0
 25 23  1  0  0  0
 23  1  1  0  0  0
  1  2  1  0  0  0
  2  3  2  0  0  0
  3  4  1  0  0  0
  4  5  2  0  0  0
  5  6  1  0  0  0
  6  7  2  0  0  0
  7  8  1  0  0  0
  7  9  1  0  0  0
  9 10  2  0  0  0
  2 11  1  0  0  0
 11 12  2  0  0  0
 12 13  1  0  0  0
 13 14  2  0  0  0
 14 15  1  0  0  0
 14 16  1  0  0  0
 16 17  2  0  0  0
 16 18  1  0  0  0
 18 20  1  0  0  0
 20 21  1  0  0  0
 21 22  1  0  0  0
 28 29  1  0  0  0
 29 30  1  0  0  0
 29 31  1  0  0  0
 29 32  1  0  0  0
 10  1  1  0  0  0
 15 11  1  0  0  0
 22 20  1  0  0  0
 10  4  1  0  0  0
 24 27  1  0  0  0
 18 19  1  0  0  0
M  END
> <minimizedAffinity>
-7.81478

> <CNNscore>
0.1563356817

> <CNNaffinity>
6.7609152794

> <CNN_VS>
1.0569722652

> <CNNaffinity_variance>
0.5988672972

$$$$
[H]c1c(C(=O)N([H])C2([H])C([H])([H])C2([H])[H])sc(-c2nc3c([H])c([H])c(Cl)c([H])c3n2C([H])([H])C(=O)N([H])[C@@]([H])(C([H])([H])C([H])([H])SC([H])([H])[H])C(C([H])([H])[H])(C([H])([H])[H])C([H])([H])[H])c1[H]


 36 39  0  0  0  0  0  0  0  0999 V2000
  -86.6473   30.5286   -0.9133 N   0  0  0  0  0  0  0  0  0  0  0  0
  -86.6983   31.8256   -1.1182 C   0  0  0  0  0  0  0  0  0  0  0  0
  -85.8723   32.4188   -0.1836 N   0  0  0  0  0  0  0  0  0  0  0  0
  -85.3392   31.4865    0.5631 C   0  0  0  0  0  0  0  0  0  0  0  0
  -84.4457   31.5865    1.6307 C   0  0  0  0  0  0  0  0  0  0  0  0
  -84.0493   30.4226    2.2348 C   0  0  0  0  0  0  0  0  0  0  0  0
  -84.5241   29.2004    1.7940 C   0  0  0  0  0  0  0  0  0  0  0  0
  -83.9979   27.7102    2.5913 Cl  0  0  0  0  0  0  0  0  0  0  0  0
  -85.4070   29.1230    0.7368 C   0  0  0  0  0  0  0  0  0  0  0  0
  -85.8001   30.2898    0.1366 C   0  0  0  0  0  0  0  0  0  0  0  0
  -87.4220   32.6597   -2.1136 C   0  0  0  0  0  0  0  0  0  0  0  0
  -87.0610   33.3452   -3.2149 C   0  0  0  0  0  0  0  0  0  0  0  0
  -87.9976   34.0156   -3.9061 C   0  0  0  0  0  0  0  0  0  0  0  0
  -89.2793   33.9647   -3.4493 C   0  0  0  0  0  0  0  0  0  0  0  0
  -89.1343   32.9852   -2.0731 S   0  0  0  0  0  0  0  0  0  0  0  0
  -90.4797   34.5955   -4.0116 C   0  0  0  0  0  0  0  0  0  0  0  0
  -91.3063   33.8994   -4.6836 O   0  0  0  0  0  0  0  0  0  0  0  0
  -90.7673   35.9584   -3.8417 N   0  0  0  0  0  0  0  0  0  0  0  0
  -90.0662   36.5231   -3.2786 H   0  0  0  0  0  0  0  0  0  0  0  0
  -91.9486   36.5528   -4.4046 C   0  0  0  0  0  0  0  0  0  0  0  0
  -92.1698   37.9827   -3.8966 C   0  0  0  0  0  0  0  0  0  0  0  0
  -93.0652   36.8422   -3.4605 C   0  0  0  0  0  0  0  0  0  0  0  0
  -87.3644   29.4899   -1.6365 C   0  0  0  0  0  0  0  0  0  0  0  0
  -89.8082   29.1087   -2.2447 N   0  0  0  0  0  0  0  0  0  0  0  0
  -88.7902   29.3837   -1.2936 C   0  0  0  0  0  0  0  0  0  0  0  0
  -89.1745   29.5376   -0.1162 O   0  0  0  0  0  0  0  0  0  0  0  0
  -89.5474   28.9767   -3.2315 H   0  0  0  0  0  0  0  0  0  0  0  0
  -91.2215   29.0040   -1.9001 C   0  0  0  0  0  0  0  0  0  0  0  0
  -91.7340   27.6233   -1.9885 C   0  0  0  0  0  0  0  0  0  0  0  0
  -90.9102   26.7036   -2.8713 C   0  0  0  0  0  0  0  0  0  0  0  0
  -91.6299   27.0193   -0.5486 C   0  0  0  0  0  0  0  0  0  0  0  0
  -93.1742   27.4811   -2.3507 C   0  0  0  0  0  0  0  0  0  0  0  0
  -91.9372   30.0669   -2.6666 C   0  0  0  0  0  0  0  0  0  0  0  0
  -91.3863   30.4325   -4.0042 C   0  0  0  0  0  0  0  0  0  0  0  0
  -92.8819   28.6393   -5.8985 C   0  0  0  0  0  0  0  0  0  0  0  0
  -92.7867   30.3125   -5.2096 S   0  0  0  0  0  0  0  0  0  0  0  0
 35 36  1  0  0  0
 36 34  1  0  0  0
 34 33  1  0  0  0
 33 28  1  0  0  0
 28 24  1  0  0  0
 24 25  1  0  0  0
 25 26  2  0  0  0
 25 23  1  0  0  0
 23  1  1  0  0  0
  1  2  1  0  0  0
  2  3  2  0  0  0
  3  4  1  0  0  0
  4  5  2  0  0  0
  5  6  1  0  0  0
  6  7  2  0  0  0
  7  8  1  0  0  0
  7  9  1  0  0  0
  9 10  2  0  0  0
  2 11  1  0  0  0
 11 12  2  0  0  0
 12 13  1  0  0  0
 13 14  2  0  0  0
 14 15  1  0  0  0
 14 16  1  0  0  0
 16 17  2  0  0  0
 16 18  1  0  0  0
 18 20  1  0  0  0
 20 21  1  0  0  0
 21 22  1  0  0  0
 28 29  1  0  0  0
 29 30  1  0  0  0
 29 31  1  0  0  0
 29 32  1  0  0  0
 10  1  1  0  0  0
 15 11  1  0  0  0
 22 20  1  0  0  0
 10  4  1  0  0  0
 24 27  1  0  0  0
 18 19  1  0  0  0
M  END
> <minimizedAffinity>
-6.98955

> <CNNscore>
0.1532023996

> <CNNaffinity>
6.6496825218

> <CNN_VS>
1.0187473297

> <CNNaffinity_variance>
0.2095388472

$$$$
[H]C(=O)N([H])[C@]([H])(C(=O)N([H])[C@]([H])(C(=O)N([H])[C@]([H])(C(=O)N([H])[C@]([H])(C(=O)N1C([H])([H])C([H])([H])C([H])([H])[C@@]1([H])C(=O)N([H])[C@]([H])(C(=O)N([H])[H])C([H])([H])c1c([H])c([H])c([H])c([H])c1[H])C([H])([H])C([H])(C([H])([H])[H])C([H])([H])[H])C([H])([H])C([H])([H])C(=O)N([H])[H])C([H])([H])C([H])([H])C(=O)N([H])[H])C([H])([H])C([H])([H])C(=O)N([H])[H]


 69 70  0  0  0  0  0  0  0  0999 V2000
  -92.1775   28.5480   -3.6803 C   0  0  0  0  0  0  0  0  0  0  0  0
  -91.5764   28.1847   -2.4010 N   0  0  0  0  0  0  0  0  0  0  0  0
  -90.5227   27.2436   -2.2987 C   0  0  0  0  0  0  0  0  0  0  0  0
  -90.1434   26.7074   -3.3844 O   0  0  0  0  0  0  0  0  0  0  0  0
  -91.9265   28.6278   -1.5321 H   0  0  0  0  0  0  0  0  0  0  0  0
  -89.8540   26.8622   -1.0662 C   0  0  0  0  0  0  0  0  0  0  0  0
  -90.2537   25.5139   -0.6857 N   0  0  0  0  0  0  0  0  0  0  0  0
  -91.5481   25.1318   -0.3074 C   0  0  0  0  0  0  0  0  0  0  0  0
  -92.4558   26.0221   -0.2804 O   0  0  0  0  0  0  0  0  0  0  0  0
  -89.5061   24.7499   -0.6932 H   0  0  0  0  0  0  0  0  0  0  0  0
  -91.8684   23.7226    0.0589 C   0  0  0  0  0  0  0  0  0  0  0  0
  -93.0178   23.2446   -0.7096 N   0  0  0  0  0  0  0  0  0  0  0  0
  -94.2217   22.8583   -0.0655 C   0  0  0  0  0  0  0  0  0  0  0  0
  -94.3478   22.9099    1.1999 O   0  0  0  0  0  0  0  0  0  0  0  0
  -92.9669   23.1855   -1.7419 H   0  0  0  0  0  0  0  0  0  0  0  0
  -90.6600   22.8399   -0.2265 C   0  0  0  0  0  0  0  0  0  0  0  0
  -90.9705   21.3938    0.1043 C   0  0  0  0  0  0  0  0  0  0  0  0
  -90.4048   20.9912    1.4073 C   0  0  0  0  0  0  0  0  0  0  0  0
  -89.0235   20.7883    1.5797 N   0  0  0  0  0  0  0  0  0  0  0  0
  -91.2211   20.8335    2.3748 O   0  0  0  0  0  0  0  0  0  0  0  0
  -88.6356   19.9168    2.0326 H   0  0  0  0  0  0  0  0  0  0  0  0
  -88.3480   21.5267    1.2479 H   0  0  0  0  0  0  0  0  0  0  0  0
  -88.3246   26.8149   -1.2652 C   0  0  0  0  0  0  0  0  0  0  0  0
  -87.7408   28.1912   -1.2486 C   0  0  0  0  0  0  0  0  0  0  0  0
  -88.0493   28.8209    0.0627 C   0  0  0  0  0  0  0  0  0  0  0  0
  -87.9232   28.1188    1.2916 N   0  0  0  0  0  0  0  0  0  0  0  0
  -88.4391   30.0161    0.1286 O   0  0  0  0  0  0  0  0  0  0  0  0
  -87.0827   28.2793    1.8574 H   0  0  0  0  0  0  0  0  0  0  0  0
  -88.6913   27.4720    1.5576 H   0  0  0  0  0  0  0  0  0  0  0  0
  -91.0359   30.8539   -3.4527 N   0  0  0  0  0  0  0  0  0  0  0  0
  -91.5407   29.7860   -4.1859 C   0  0  0  0  0  0  0  0  0  0  0  0
  -91.4658   29.8527   -5.4624 O   0  0  0  0  0  0  0  0  0  0  0  0
  -91.0543   30.8852   -2.4240 H   0  0  0  0  0  0  0  0  0  0  0  0
  -90.4310   32.0316   -4.1285 C   0  0  0  0  0  0  0  0  0  0  0  0
  -89.2270   32.4537   -3.3529 C   0  0  0  0  0  0  0  0  0  0  0  0
  -89.1460   31.8422   -2.2265 O   0  0  0  0  0  0  0  0  0  0  0  0
  -88.2787   33.3814   -3.7430 N   0  0  0  0  0  0  0  0  0  0  0  0
  -88.2833   34.1119   -5.0501 C   0  0  0  0  0  0  0  0  0  0  0  0
  -88.0798   35.5275   -4.5724 C   0  0  0  0  0  0  0  0  0  0  0  0
  -87.5797   35.4325   -3.1187 C   0  0  0  0  0  0  0  0  0  0  0  0
  -87.1190   33.9628   -3.1414 C   0  0  0  0  0  0  0  0  0  0  0  0
  -86.5942   33.5056   -1.9016 C   0  0  0  0  0  0  0  0  0  0  0  0
  -87.3149   33.6687   -0.8351 O   0  0  0  0  0  0  0  0  0  0  0  0
  -85.3459   32.8884   -1.7088 N   0  0  0  0  0  0  0  0  0  0  0  0
  -84.6391   32.7086   -2.4442 H   0  0  0  0  0  0  0  0  0  0  0  0
  -84.9134   32.4514   -0.3632 C   0  0  0  0  0  0  0  0  0  0  0  0
  -83.5359   32.9593   -0.1989 C   0  0  0  0  0  0  0  0  0  0  0  0
  -82.4088   32.1600    0.1193 N   0  0  0  0  0  0  0  0  0  0  0  0
  -83.2654   34.2075   -0.3362 O   0  0  0  0  0  0  0  0  0  0  0  0
  -81.4900   32.2618   -0.3495 H   0  0  0  0  0  0  0  0  0  0  0  0
  -82.5087   31.4378    0.8576 H   0  0  0  0  0  0  0  0  0  0  0  0
  -84.9485   30.9527   -0.4199 C   0  0  0  0  0  0  0  0  0  0  0  0
  -84.8933   30.2683    0.8795 C   0  0  0  0  0  0  0  0  0  0  0  0
  -85.3843   30.9832    1.9746 C   0  0  0  0  0  0  0  0  0  0  0  0
  -85.4038   30.4283    3.2301 C   0  0  0  0  0  0  0  0  0  0  0  0
  -84.9276   29.1451    3.3967 C   0  0  0  0  0  0  0  0  0  0  0  0
  -84.4334   28.4033    2.3426 C   0  0  0  0  0  0  0  0  0  0  0  0
  -84.4329   28.9927    1.1091 C   0  0  0  0  0  0  0  0  0  0  0  0
  -91.5159   33.0903   -3.9315 C   0  0  0  0  0  0  0  0  0  0  0  0
  -91.4533   33.3389   -6.4196 C   0  0  0  0  0  0  0  0  0  0  0  0
  -92.2100   33.5465   -5.1498 C   0  0  0  0  0  0  0  0  0  0  0  0
  -93.5268   32.7658   -5.2573 C   0  0  0  0  0  0  0  0  0  0  0  0
  -93.6683   28.6738   -3.4866 C   0  0  0  0  0  0  0  0  0  0  0  0
  -94.4714   28.0038   -4.5495 C   0  0  0  0  0  0  0  0  0  0  0  0
  -94.7587   28.8383   -5.7172 C   0  0  0  0  0  0  0  0  0  0  0  0
  -93.9497   28.7047   -6.8735 N   0  0  0  0  0  0  0  0  0  0  0  0
  -95.7018   29.6556   -5.6955 O   0  0  0  0  0  0  0  0  0  0  0  0
  -93.8421   29.4586   -7.5836 H   0  0  0  0  0  0  0  0  0  0  0  0
  -93.4156   27.8252   -7.0651 H   0  0  0  0  0  0  0  0  0  0  0  0
 60 61  1  0  0  0
 61 62  1  0  0  0
 61 59  1  0  0  0
 59 34  1  0  0  0
 34 30  1  0  0  0
 30 31  1  0  0  0
 31 32  2  0  0  0
 31  1  1  0  0  0
  1 63  1  0  0  0
 63 64  1  0  0  0
 64 65  1  0  0  0
 65 66  1  0  0  0
 65 67  2  0  0  0
  1  2  1  0  0  0
  2  3  1  0  0  0
  3  4  2  0  0  0
  3  6  1  0  0  0
  6 23  1  0  0  0
 23 24  1  0  0  0
 24 25  1  0  0  0
 25 26  1  0  0  0
 25 27  2  0  0  0
  6  7  1  0  0  0
  7  8  1  0  0  0
  8  9  2  0  0  0
  8 11  1  0  0  0
 11 16  1  0  0  0
 16 17  1  0  0  0
 17 18  1  0  0  0
 18 19  1  0  0  0
 18 20  2  0  0  0
 11 12  1  0  0  0
 12 13  1  0  0  0
 13 14  2  0  0  0
 34 35  1  0  0  0
 35 36  2  0  0  0
 35 37  1  0  0  0
 37 38  1  0  0  0
 38 39  1  0  0  0
 39 40  1  0  0  0
 40 41  1  0  0  0
 41 42  1  0  0  0
 42 43  2  0  0  0
 42 44  1  0  0  0
 44 46  1  0  0  0
 46 52  1  0  0  0
 52 53  1  0  0  0
 53 54  2  0  0  0
 54 55  1  0  0  0
 55 56  2  0  0  0
 56 57  1  0  0  0
 57 58  2  0  0  0
 46 47  1  0  0  0
 47 48  1  0  0  0
 47 49  2  0  0  0
 41 37  1  0  0  0
 58 53  1  0  0  0
 30 33  1  0  0  0
 66 68  1  0  0  0
 66 69  1  0  0  0
  2  5  1  0  0  0
 26 28  1  0  0  0
 26 29  1  0  0  0
  7 10  1  0  0  0
 19 21  1  0  0  0
 19 22  1  0  0  0
 12 15  1  0  0  0
 44 45  1  0  0  0
 48 50  1  0  0  0
 48 51  1  0  0  0
M  END
> <minimizedAffinity>
-6.88273

> <CNNscore>
0.1944483519

> <CNNaffinity>
7.3184609413

> <CNN_VS>
1.4230626822

> <CNNaffinity_variance>
0.3904300630

$$$$
[H]C(=O)N([H])[C@]([H])(C(=O)N([H])[C@]([H])(C(=O)N([H])[C@]([H])(C(=O)N([H])[C@]([H])(C(=O)N1C([H])([H])C([H])([H])C([H])([H])[C@@]1([H])C(=O)N([H])[C@]([H])(C(=O)N([H])[H])C([H])([H])c1c([H])c([H])c([H])c([H])c1[H])C([H])([H])C([H])(C([H])([H])[H])C([H])([H])[H])C([H])([H])C([H])([H])C(=O)N([H])[H])C([H])([H])C([H])([H])C(=O)N([H])[H])C([H])([H])C([H])([H])C(=O)N([H])[H]


 69 70  0  0  0  0  0  0  0  0999 V2000
  -91.7347   30.3355   -2.1756 C   0  0  0  0  0  0  0  0  0  0  0  0
  -90.3023   30.0566   -2.1625 N   0  0  0  0  0  0  0  0  0  0  0  0
  -89.5720   29.8977   -0.9593 C   0  0  0  0  0  0  0  0  0  0  0  0
  -90.2288   30.0389    0.1173 O   0  0  0  0  0  0  0  0  0  0  0  0
  -89.7945   29.9687   -3.0615 H   0  0  0  0  0  0  0  0  0  0  0  0
  -88.1559   29.5836   -0.8715 C   0  0  0  0  0  0  0  0  0  0  0  0
  -87.4279   30.7322   -0.3490 N   0  0  0  0  0  0  0  0  0  0  0  0
  -86.0386   30.7965   -0.1745 C   0  0  0  0  0  0  0  0  0  0  0  0
  -85.3444   29.7768   -0.4836 O   0  0  0  0  0  0  0  0  0  0  0  0
  -87.9909   31.5985   -0.0749 H   0  0  0  0  0  0  0  0  0  0  0  0
  -85.3768   32.0206    0.3607 C   0  0  0  0  0  0  0  0  0  0  0  0
  -84.1236   31.6715    1.0297 N   0  0  0  0  0  0  0  0  0  0  0  0
  -84.1021   31.2970    2.3983 C   0  0  0  0  0  0  0  0  0  0  0  0
  -85.1664   31.2526    3.0948 O   0  0  0  0  0  0  0  0  0  0  0  0
  -83.2304   31.6903    0.5069 H   0  0  0  0  0  0  0  0  0  0  0  0
  -85.0933   32.9831   -0.7856 C   0  0  0  0  0  0  0  0  0  0  0  0
  -86.3451   33.7558   -1.1504 C   0  0  0  0  0  0  0  0  0  0  0  0
  -86.7396   33.5371   -2.5562 C   0  0  0  0  0  0  0  0  0  0  0  0
  -86.3618   34.4307   -3.5749 N   0  0  0  0  0  0  0  0  0  0  0  0
  -87.4396   32.5019   -2.8122 O   0  0  0  0  0  0  0  0  0  0  0  0
  -87.0578   34.8221   -4.2659 H   0  0  0  0  0  0  0  0  0  0  0  0
  -85.3521   34.7233   -3.6565 H   0  0  0  0  0  0  0  0  0  0  0  0
  -87.9114   28.4321    0.1261 C   0  0  0  0  0  0  0  0  0  0  0  0
  -87.8297   27.1187   -0.5833 C   0  0  0  0  0  0  0  0  0  0  0  0
  -87.7607   26.0350    0.4326 C   0  0  0  0  0  0  0  0  0  0  0  0
  -88.2534   24.7259    0.1822 N   0  0  0  0  0  0  0  0  0  0  0  0
  -87.2559   26.2448    1.5665 O   0  0  0  0  0  0  0  0  0  0  0  0
  -87.5795   23.9944   -0.0692 H   0  0  0  0  0  0  0  0  0  0  0  0
  -89.2775   24.5730    0.2643 H   0  0  0  0  0  0  0  0  0  0  0  0
  -91.9632   27.8450   -2.8220 N   0  0  0  0  0  0  0  0  0  0  0  0
  -92.4750   29.0804   -2.4417 C   0  0  0  0  0  0  0  0  0  0  0  0
  -93.7436   29.1806   -2.3002 O   0  0  0  0  0  0  0  0  0  0  0  0
  -90.9575   27.6739   -2.9591 H   0  0  0  0  0  0  0  0  0  0  0  0
  -92.8588   26.6820   -3.0562 C   0  0  0  0  0  0  0  0  0  0  0  0
  -92.4567   25.5828   -2.1292 C   0  0  0  0  0  0  0  0  0  0  0  0
  -91.3573   25.8490   -1.5212 O   0  0  0  0  0  0  0  0  0  0  0  0
  -93.1393   24.4009   -1.9070 N   0  0  0  0  0  0  0  0  0  0  0  0
  -94.4399   24.0300   -2.5496 C   0  0  0  0  0  0  0  0  0  0  0  0
  -94.1193   22.6376   -3.0312 C   0  0  0  0  0  0  0  0  0  0  0  0
  -92.8471   22.1967   -2.2833 C   0  0  0  0  0  0  0  0  0  0  0  0
  -92.9025   23.2211   -1.1344 C   0  0  0  0  0  0  0  0  0  0  0  0
  -91.8208   23.1158   -0.2175 C   0  0  0  0  0  0  0  0  0  0  0  0
  -90.6332   22.9029   -0.6948 O   0  0  0  0  0  0  0  0  0  0  0  0
  -91.9099   23.2143    1.1820 N   0  0  0  0  0  0  0  0  0  0  0  0
  -92.7807   23.3538    1.7251 H   0  0  0  0  0  0  0  0  0  0  0  0
  -90.7048   23.0909    2.0313 C   0  0  0  0  0  0  0  0  0  0  0  0
  -90.4322   21.6427    2.1346 C   0  0  0  0  0  0  0  0  0  0  0  0
  -89.4184   20.9549    1.4207 N   0  0  0  0  0  0  0  0  0  0  0  0
  -91.1281   20.8873    2.9060 O   0  0  0  0  0  0  0  0  0  0  0  0
  -88.7994   20.2459    1.8551 H   0  0  0  0  0  0  0  0  0  0  0  0
  -89.2897   21.1718    0.4142 H   0  0  0  0  0  0  0  0  0  0  0  0
  -91.1089   23.6747    3.3528 C   0  0  0  0  0  0  0  0  0  0  0  0
  -90.7071   25.0703    3.5781 C   0  0  0  0  0  0  0  0  0  0  0  0
  -90.8083   25.9265    2.4790 C   0  0  0  0  0  0  0  0  0  0  0  0
  -90.4836   27.2560    2.5860 C   0  0  0  0  0  0  0  0  0  0  0  0
  -90.0519   27.7384    3.8035 C   0  0  0  0  0  0  0  0  0  0  0  0
  -89.9369   26.9277    4.9149 C   0  0  0  0  0  0  0  0  0  0  0  0
  -90.2713   25.6106    4.7655 C   0  0  0  0  0  0  0  0  0  0  0  0
  -92.4657   26.2717   -4.4753 C   0  0  0  0  0  0  0  0  0  0  0  0
  -92.7545   27.3985   -6.6897 C   0  0  0  0  0  0  0  0  0  0  0  0
  -93.3913   26.6748   -5.5500 C   0  0  0  0  0  0  0  0  0  0  0  0
  -94.0407   25.4017   -6.1090 C   0  0  0  0  0  0  0  0  0  0  0  0
  -91.9993   31.4175   -3.1929 C   0  0  0  0  0  0  0  0  0  0  0  0
  -91.4025   31.1430   -4.5317 C   0  0  0  0  0  0  0  0  0  0  0  0
  -90.3643   32.0886   -4.9446 C   0  0  0  0  0  0  0  0  0  0  0  0
  -89.0501   31.6097   -5.1739 N   0  0  0  0  0  0  0  0  0  0  0  0
  -90.6319   33.2988   -5.0924 O   0  0  0  0  0  0  0  0  0  0  0  0
  -88.2052   32.2159   -5.1187 H   0  0  0  0  0  0  0  0  0  0  0  0
  -88.8706   30.6066   -5.4127 H   0  0  0  0  0  0  0  0  0  0  0  0
 60 61  1  0  0  0
 61 62  1  0  0  0
 61 59  1  0  0  0
 59 34  1  0  0  0
 34 30  1  0  0  0
 30 31  1  0  0  0
 31 32  2  0  0  0
 31  1  1  0  0  0
  1 63  1  0  0  0
 63 64  1  0  0  0
 64 65  1  0  0  0
 65 66  1  0  0  0
 65 67  2  0  0  0
  1  2  1  0  0  0
  2  3  1  0  0  0
  3  4  2  0  0  0
  3  6  1  0  0  0
  6 23  1  0  0  0
 23 24  1  0  0  0
 24 25  1  0  0  0
 25 26  1  0  0  0
 25 27  2  0  0  0
  6  7  1  0  0  0
  7  8  1  0  0  0
  8  9  2  0  0  0
  8 11  1  0  0  0
 11 16  1  0  0  0
 16 17  1  0  0  0
 17 18  1  0  0  0
 18 19  1  0  0  0
 18 20  2  0  0  0
 11 12  1  0  0  0
 12 13  1  0  0  0
 13 14  2  0  0  0
 34 35  1  0  0  0
 35 36  2  0  0  0
 35 37  1  0  0  0
 37 38  1  0  0  0
 38 39  1  0  0  0
 39 40  1  0  0  0
 40 41  1  0  0  0
 41 42  1  0  0  0
 42 43  2  0  0  0
 42 44  1  0  0  0
 44 46  1  0  0  0
 46 52  1  0  0  0
 52 53  1  0  0  0
 53 54  2  0  0  0
 54 55  1  0  0  0
 55 56  2  0  0  0
 56 57  1  0  0  0
 57 58  2  0  0  0
 46 47  1  0  0  0
 47 48  1  0  0  0
 47 49  2  0  0  0
 41 37  1  0  0  0
 58 53  1  0  0  0
 30 33  1  0  0  0
 66 68  1  0  0  0
 66 69  1  0  0  0
  2  5  1  0  0  0
 26 28  1  0  0  0
 26 29  1  0  0  0
  7 10  1  0  0  0
 19 21  1  0  0  0
 19 22  1  0  0  0
 12 15  1  0  0  0
 44 45  1  0  0  0
 48 50  1  0  0  0
 48 51  1  0  0  0
M  END
> <minimizedAffinity>
-7.55452

> <CNNscore>
0.0452851839

> <CNNaffinity>
7.0610723495

> <CNN_VS>
0.3197619617

> <CNNaffinity_variance>
0.9158437848

$$$$
[H]C(=O)N([H])[C@]([H])(C(=O)N([H])[C@]([H])(C(=O)N([H])[C@]([H])(C(=O)N([H])[C@]([H])(C(=O)N1C([H])([H])C([H])([H])C([H])([H])[C@@]1([H])C(=O)N([H])[C@]([H])(C(=O)N([H])[H])C([H])([H])c1c([H])c([H])c([H])c([H])c1[H])C([H])([H])C([H])(C([H])([H])[H])C([H])([H])[H])C([H])([H])C([H])([H])C(=O)N([H])[H])C([H])([H])C([H])([H])C(=O)N([H])[H])C([H])([H])C([H])([H])C(=O)N([H])[H]


 69 70  0  0  0  0  0  0  0  0999 V2000
  -88.3959   31.2456   -2.2558 C   0  0  0  0  0  0  0  0  0  0  0  0
  -89.7816   30.9415   -2.5980 N   0  0  0  0  0  0  0  0  0  0  0  0
  -90.2686   31.0175   -3.9260 C   0  0  0  0  0  0  0  0  0  0  0  0
  -89.4364   31.3937   -4.8070 O   0  0  0  0  0  0  0  0  0  0  0  0
  -90.4385   30.6577   -1.8485 H   0  0  0  0  0  0  0  0  0  0  0  0
  -91.6225   30.6948   -4.3437 C   0  0  0  0  0  0  0  0  0  0  0  0
  -92.2790   29.8988   -3.3153 N   0  0  0  0  0  0  0  0  0  0  0  0
  -92.4876   28.5141   -3.3763 C   0  0  0  0  0  0  0  0  0  0  0  0
  -92.0860   27.8888   -4.4084 O   0  0  0  0  0  0  0  0  0  0  0  0
  -92.6322   30.4036   -2.4418 H   0  0  0  0  0  0  0  0  0  0  0  0
  -93.1633   27.7788   -2.2693 C   0  0  0  0  0  0  0  0  0  0  0  0
  -94.6145   27.8031   -2.4523 N   0  0  0  0  0  0  0  0  0  0  0  0
  -95.3767   28.9531   -2.1203 C   0  0  0  0  0  0  0  0  0  0  0  0
  -94.8311   30.0025   -1.6503 O   0  0  0  0  0  0  0  0  0  0  0  0
  -95.1062   26.9755   -2.8329 H   0  0  0  0  0  0  0  0  0  0  0  0
  -92.6748   26.3360   -2.2499 C   0  0  0  0  0  0  0  0  0  0  0  0
  -93.4863   25.5151   -1.2677 C   0  0  0  0  0  0  0  0  0  0  0  0
  -92.9426   24.1522   -1.1047 C   0  0  0  0  0  0  0  0  0  0  0  0
  -93.0055   23.4764    0.1275 N   0  0  0  0  0  0  0  0  0  0  0  0
  -92.4109   23.6090   -2.1292 O   0  0  0  0  0  0  0  0  0  0  0  0
  -92.1597   23.0140    0.5588 H   0  0  0  0  0  0  0  0  0  0  0  0
  -93.9242   23.4265    0.6424 H   0  0  0  0  0  0  0  0  0  0  0  0
  -92.4679   31.9764   -4.4975 C   0  0  0  0  0  0  0  0  0  0  0  0
  -92.8021   32.2272   -5.9330 C   0  0  0  0  0  0  0  0  0  0  0  0
  -92.1055   33.4655   -6.3722 C   0  0  0  0  0  0  0  0  0  0  0  0
  -90.7183   33.4892   -6.6789 N   0  0  0  0  0  0  0  0  0  0  0  0
  -92.7318   34.5513   -6.4883 O   0  0  0  0  0  0  0  0  0  0  0  0
  -90.4395   33.4538   -7.6655 H   0  0  0  0  0  0  0  0  0  0  0  0
  -90.0505   33.5393   -5.8849 H   0  0  0  0  0  0  0  0  0  0  0  0
  -87.7935   29.6951   -0.2794 N   0  0  0  0  0  0  0  0  0  0  0  0
  -87.7770   30.0588   -1.6212 C   0  0  0  0  0  0  0  0  0  0  0  0
  -87.1517   29.2951   -2.4368 O   0  0  0  0  0  0  0  0  0  0  0  0
  -88.2710   30.2490    0.4449 H   0  0  0  0  0  0  0  0  0  0  0  0
  -87.1081   28.4626    0.1905 C   0  0  0  0  0  0  0  0  0  0  0  0
  -88.1341   27.5418    0.7638 C   0  0  0  0  0  0  0  0  0  0  0  0
  -88.1304   27.5627    2.0478 O   0  0  0  0  0  0  0  0  0  0  0  0
  -89.0102   26.7404    0.0551 N   0  0  0  0  0  0  0  0  0  0  0  0
  -89.1000   26.6826   -1.4385 C   0  0  0  0  0  0  0  0  0  0  0  0
  -89.0655   25.1910   -1.6566 C   0  0  0  0  0  0  0  0  0  0  0  0
  -89.3671   24.5411   -0.2931 C   0  0  0  0  0  0  0  0  0  0  0  0
  -89.9979   25.7647    0.3978 C   0  0  0  0  0  0  0  0  0  0  0  0
  -90.3966   25.5243    1.7413 C   0  0  0  0  0  0  0  0  0  0  0  0
  -91.6664   25.4640    2.0008 O   0  0  0  0  0  0  0  0  0  0  0  0
  -89.5379   25.3485    2.8404 N   0  0  0  0  0  0  0  0  0  0  0  0
  -88.5035   25.3945    2.8142 H   0  0  0  0  0  0  0  0  0  0  0  0
  -90.0777   25.0992    4.1950 C   0  0  0  0  0  0  0  0  0  0  0  0
  -90.2043   26.4279    4.8282 C   0  0  0  0  0  0  0  0  0  0  0  0
  -90.6950   27.5910    4.1826 N   0  0  0  0  0  0  0  0  0  0  0  0
  -89.8596   26.6187    6.0508 O   0  0  0  0  0  0  0  0  0  0  0  0
  -91.3609   28.2491    4.6274 H   0  0  0  0  0  0  0  0  0  0  0  0
  -90.3718   27.7933    3.2175 H   0  0  0  0  0  0  0  0  0  0  0  0
  -89.0350   24.2596    4.8720 C   0  0  0  0  0  0  0  0  0  0  0  0
  -89.0737   22.8249    4.5555 C   0  0  0  0  0  0  0  0  0  0  0  0
  -88.2160   22.0067    5.2945 C   0  0  0  0  0  0  0  0  0  0  0  0
  -88.1906   20.6484    5.0978 C   0  0  0  0  0  0  0  0  0  0  0  0
  -89.0301   20.0982    4.1524 C   0  0  0  0  0  0  0  0  0  0  0  0
  -89.8931   20.8694    3.4000 C   0  0  0  0  0  0  0  0  0  0  0  0
  -89.8876   22.2174    3.6280 C   0  0  0  0  0  0  0  0  0  0  0  0
  -86.2602   29.0022    1.3423 C   0  0  0  0  0  0  0  0  0  0  0  0
  -84.6013   30.8215    0.9013 C   0  0  0  0  0  0  0  0  0  0  0  0
  -84.8670   29.3571    1.0150 C   0  0  0  0  0  0  0  0  0  0  0  0
  -83.9698   28.8045    2.1307 C   0  0  0  0  0  0  0  0  0  0  0  0
  -88.3808   32.4732   -1.3793 C   0  0  0  0  0  0  0  0  0  0  0  0
  -88.1915   33.7468   -2.1315 C   0  0  0  0  0  0  0  0  0  0  0  0
  -86.8145   34.0101   -2.5525 C   0  0  0  0  0  0  0  0  0  0  0  0
  -86.5882   34.7303   -3.7523 N   0  0  0  0  0  0  0  0  0  0  0  0
  -85.8537   33.6065   -1.8657 O   0  0  0  0  0  0  0  0  0  0  0  0
  -85.7058   34.6605   -4.3007 H   0  0  0  0  0  0  0  0  0  0  0  0
  -87.3135   35.3747   -4.1449 H   0  0  0  0  0  0  0  0  0  0  0  0
 60 61  1  0  0  0
 61 62  1  0  0  0
 61 59  1  0  0  0
 59 34  1  0  0  0
 34 30  1  0  0  0
 30 31  1  0  0  0
 31 32  2  0  0  0
 31  1  1  0  0  0
  1 63  1  0  0  0
 63 64  1  0  0  0
 64 65  1  0  0  0
 65 66  1  0  0  0
 65 67  2  0  0  0
  1  2  1  0  0  0
  2  3  1  0  0  0
  3  4  2  0  0  0
  3  6  1  0  0  0
  6 23  1  0  0  0
 23 24  1  0  0  0
 24 25  1  0  0  0
 25 26  1  0  0  0
 25 27  2  0  0  0
  6  7  1  0  0  0
  7  8  1  0  0  0
  8  9  2  0  0  0
  8 11  1  0  0  0
 11 16  1  0  0  0
 16 17  1  0  0  0
 17 18  1  0  0  0
 18 19  1  0  0  0
 18 20  2  0  0  0
 11 12  1  0  0  0
 12 13  1  0  0  0
 13 14  2  0  0  0
 34 35  1  0  0  0
 35 36  2  0  0  0
 35 37  1  0  0  0
 37 38  1  0  0  0
 38 39  1  0  0  0
 39 40  1  0  0  0
 40 41  1  0  0  0
 41 42  1  0  0  0
 42 43  2  0  0  0
 42 44  1  0  0  0
 44 46  1  0  0  0
 46 52  1  0  0  0
 52 53  1  0  0  0
 53 54  2  0  0  0
 54 55  1  0  0  0
 55 56  2  0  0  0
 56 57  1  0  0  0
 57 58  2  0  0  0
 46 47  1  0  0  0
 47 48  1  0  0  0
 47 49  2  0  0  0
 41 37  1  0  0  0
 58 53  1  0  0  0
 30 33  1  0  0  0
 66 68  1  0  0  0
 66 69  1  0  0  0
  2  5  1  0  0  0
 26 28  1  0  0  0
 26 29  1  0  0  0
  7 10  1  0  0  0
 19 21  1  0  0  0
 19 22  1  0  0  0
 12 15  1  0  0  0
 44 45  1  0  0  0
 48 50  1  0  0  0
 48 51  1  0  0  0
M  END
> <minimizedAffinity>
-7.63141

> <CNNscore>
0.0431989096

> <CNNaffinity>
6.8164491653

> <CNN_VS>
0.2944631577

> <CNNaffinity_variance>
0.6695848107

$$$$
[H]C(=O)N([H])[C@]([H])(C(=O)N([H])[C@]([H])(C(=O)N([H])[C@]([H])(C(=O)N([H])[C@]([H])(C(=O)N1C([H])([H])C([H])([H])C([H])([H])[C@@]1([H])C(=O)N([H])[C@]([H])(C(=O)N([H])[H])C([H])([H])c1c([H])c([H])c([H])c([H])c1[H])C([H])([H])C([H])(C([H])([H])[H])C([H])([H])[H])C([H])([H])C([H])([H])C(=O)N([H])[H])C([H])([H])C([H])([H])C(=O)N([H])[H])C([H])([H])C([H])([H])C(=O)N([H])[H]


 69 70  0  0  0  0  0  0  0  0999 V2000
  -86.2847   28.4094    0.7406 C   0  0  0  0  0  0  0  0  0  0  0  0
  -87.0747   29.4977    0.1737 N   0  0  0  0  0  0  0  0  0  0  0  0
  -87.5631   29.4671   -1.1556 C   0  0  0  0  0  0  0  0  0  0  0  0
  -87.2521   28.4470   -1.8432 O   0  0  0  0  0  0  0  0  0  0  0  0
  -87.2915   30.3251    0.7586 H   0  0  0  0  0  0  0  0  0  0  0  0
  -88.3841   30.4952   -1.7725 C   0  0  0  0  0  0  0  0  0  0  0  0
  -87.5418   31.5979   -2.2163 N   0  0  0  0  0  0  0  0  0  0  0  0
  -87.6529   32.9253   -1.7800 C   0  0  0  0  0  0  0  0  0  0  0  0
  -88.5616   33.2085   -0.9366 O   0  0  0  0  0  0  0  0  0  0  0  0
  -86.7759   31.3857   -2.9311 H   0  0  0  0  0  0  0  0  0  0  0  0
  -86.7388   33.9898   -2.2838 C   0  0  0  0  0  0  0  0  0  0  0  0
  -85.3821   33.4652   -2.4395 N   0  0  0  0  0  0  0  0  0  0  0  0
  -84.5657   33.1953   -1.3107 C   0  0  0  0  0  0  0  0  0  0  0  0
  -84.9785   33.4002   -0.1243 O   0  0  0  0  0  0  0  0  0  0  0  0
  -84.9997   33.2797   -3.3834 H   0  0  0  0  0  0  0  0  0  0  0  0
  -87.2476   34.4979   -3.6268 C   0  0  0  0  0  0  0  0  0  0  0  0
  -87.7841   35.9087   -3.4907 C   0  0  0  0  0  0  0  0  0  0  0  0
  -89.2540   35.9561   -3.6214 C   0  0  0  0  0  0  0  0  0  0  0  0
  -90.0565   34.8400   -3.3227 N   0  0  0  0  0  0  0  0  0  0  0  0
  -89.7701   37.0532   -4.0179 O   0  0  0  0  0  0  0  0  0  0  0  0
  -90.7983   34.4873   -3.9863 H   0  0  0  0  0  0  0  0  0  0  0  0
  -89.9178   34.3346   -2.4078 H   0  0  0  0  0  0  0  0  0  0  0  0
  -89.0809   29.9530   -3.0380 C   0  0  0  0  0  0  0  0  0  0  0  0
  -89.9373   31.0039   -3.6684 C   0  0  0  0  0  0  0  0  0  0  0  0
  -89.2796   31.4626   -4.9207 C   0  0  0  0  0  0  0  0  0  0  0  0
  -89.8454   32.4658   -5.7530 N   0  0  0  0  0  0  0  0  0  0  0  0
  -88.1823   30.9692   -5.2912 O   0  0  0  0  0  0  0  0  0  0  0  0
  -89.4799   33.4212   -5.6771 H   0  0  0  0  0  0  0  0  0  0  0  0
  -90.6071   32.1816   -6.3996 H   0  0  0  0  0  0  0  0  0  0  0  0
  -88.5433   27.1668    0.9051 N   0  0  0  0  0  0  0  0  0  0  0  0
  -87.1924   27.3290    1.1909 C   0  0  0  0  0  0  0  0  0  0  0  0
  -86.6336   26.4537    1.9399 O   0  0  0  0  0  0  0  0  0  0  0  0
  -89.0727   27.8213    0.3127 H   0  0  0  0  0  0  0  0  0  0  0  0
  -89.3110   26.0170    1.4512 C   0  0  0  0  0  0  0  0  0  0  0  0
  -90.3839   25.6605    0.4760 C   0  0  0  0  0  0  0  0  0  0  0  0
  -90.8536   26.6978   -0.1178 O   0  0  0  0  0  0  0  0  0  0  0  0
  -90.8579   24.3912    0.1996 N   0  0  0  0  0  0  0  0  0  0  0  0
  -90.3429   23.1308    0.8229 C   0  0  0  0  0  0  0  0  0  0  0  0
  -91.6389   22.4838    1.2415 C   0  0  0  0  0  0  0  0  0  0  0  0
  -92.7600   23.2117    0.4762 C   0  0  0  0  0  0  0  0  0  0  0  0
  -91.8937   23.8511   -0.6253 C   0  0  0  0  0  0  0  0  0  0  0  0
  -92.6288   24.6489   -1.5444 C   0  0  0  0  0  0  0  0  0  0  0  0
  -93.7134   25.2236   -1.1239 O   0  0  0  0  0  0  0  0  0  0  0  0
  -92.2971   24.8776   -2.8912 N   0  0  0  0  0  0  0  0  0  0  0  0
  -91.4850   24.4743   -3.3918 H   0  0  0  0  0  0  0  0  0  0  0  0
  -93.1448   25.7352   -3.7482 C   0  0  0  0  0  0  0  0  0  0  0  0
  -93.7131   24.8396   -4.7765 C   0  0  0  0  0  0  0  0  0  0  0  0
  -93.9391   23.4501   -4.6071 N   0  0  0  0  0  0  0  0  0  0  0  0
  -94.0470   25.2828   -5.9349 O   0  0  0  0  0  0  0  0  0  0  0  0
  -94.8048   22.9735   -4.9197 H   0  0  0  0  0  0  0  0  0  0  0  0
  -93.2018   22.8827   -4.1477 H   0  0  0  0  0  0  0  0  0  0  0  0
  -92.1967   26.7331   -4.3448 C   0  0  0  0  0  0  0  0  0  0  0  0
  -92.6772   28.1216   -4.3784 C   0  0  0  0  0  0  0  0  0  0  0  0
  -93.1848   28.6280   -3.1796 C   0  0  0  0  0  0  0  0  0  0  0  0
  -93.6362   29.9214   -3.0931 C   0  0  0  0  0  0  0  0  0  0  0  0
  -93.5818   30.7205   -4.2156 C   0  0  0  0  0  0  0  0  0  0  0  0
  -93.0883   30.2608   -5.4201 C   0  0  0  0  0  0  0  0  0  0  0  0
  -92.6481   28.9673   -5.4628 C   0  0  0  0  0  0  0  0  0  0  0  0
  -89.9750   26.6446    2.6768 C   0  0  0  0  0  0  0  0  0  0  0  0
  -90.1316   26.8361    5.1657 C   0  0  0  0  0  0  0  0  0  0  0  0
  -89.5141   26.1559    3.9893 C   0  0  0  0  0  0  0  0  0  0  0  0
  -89.8578   24.6630    4.0790 C   0  0  0  0  0  0  0  0  0  0  0  0
  -85.4241   28.9716    1.8447 C   0  0  0  0  0  0  0  0  0  0  0  0
  -84.7920   30.2795    1.5077 C   0  0  0  0  0  0  0  0  0  0  0  0
  -83.3294   30.2851    1.5642 C   0  0  0  0  0  0  0  0  0  0  0  0
  -82.6551   29.1293    2.0319 N   0  0  0  0  0  0  0  0  0  0  0  0
  -82.6852   31.2924    1.2060 O   0  0  0  0  0  0  0  0  0  0  0  0
  -81.6947   29.1536    2.4335 H   0  0  0  0  0  0  0  0  0  0  0  0
  -83.1037   28.1845    1.9927 H   0  0  0  0  0  0  0  0  0  0  0  0
 60 61  1  0  0  0
 61 62  1  0  0  0
 61 59  1  0  0  0
 59 34  1  0  0  0
 34 30  1  0  0  0
 30 31  1  0  0  0
 31 32  2  0  0  0
 31  1  1  0  0  0
  1 63  1  0  0  0
 63 64  1  0  0  0
 64 65  1  0  0  0
 65 66  1  0  0  0
 65 67  2  0  0  0
  1  2  1  0  0  0
  2  3  1  0  0  0
  3  4  2  0  0  0
  3  6  1  0  0  0
  6 23  1  0  0  0
 23 24  1  0  0  0
 24 25  1  0  0  0
 25 26  1  0  0  0
 25 27  2  0  0  0
  6  7  1  0  0  0
  7  8  1  0  0  0
  8  9  2  0  0  0
  8 11  1  0  0  0
 11 16  1  0  0  0
 16 17  1  0  0  0
 17 18  1  0  0  0
 18 19  1  0  0  0
 18 20  2  0  0  0
 11 12  1  0  0  0
 12 13  1  0  0  0
 13 14  2  0  0  0
 34 35  1  0  0  0
 35 36  2  0  0  0
 35 37  1  0  0  0
 37 38  1  0  0  0
 38 39  1  0  0  0
 39 40  1  0  0  0
 40 41  1  0  0  0
 41 42  1  0  0  0
 42 43  2  0  0  0
 42 44  1  0  0  0
 44 46  1  0  0  0
 46 52  1  0  0  0
 52 53  1  0  0  0
 53 54  2  0  0  0
 54 55  1  0  0  0
 55 56  2  0  0  0
 56 57  1  0  0  0
 57 58  2  0  0  0
 46 47  1  0  0  0
 47 48  1  0  0  0
 47 49  2  0  0  0
 41 37  1  0  0  0
 58 53  1  0  0  0
 30 33  1  0  0  0
 66 68  1  0  0  0
 66 69  1  0  0  0
  2  5  1  0  0  0
 26 28  1  0  0  0
 26 29  1  0  0  0
  7 10  1  0  0  0
 19 21  1  0  0  0
 19 22  1  0  0  0
 12 15  1  0  0  0
 44 45  1  0  0  0
 48 50  1  0  0  0
 48 51  1  0  0  0
M  END
> <minimizedAffinity>
-7.80858

> <CNNscore>
0.0369497426

> <CNNaffinity>
6.9597845078

> <CNN_VS>
0.2571622431

> <CNNaffinity_variance>
1.0821753740

$$$$
[H]C(=O)N([H])[C@]([H])(C(=O)N([H])[C@]([H])(C(=O)N([H])[C@]([H])(C(=O)N([H])[C@]([H])(C(=O)N1C([H])([H])C([H])([H])C([H])([H])[C@@]1([H])C(=O)N([H])[C@]([H])(C(=O)N([H])[H])C([H])([H])c1c([H])c([H])c([H])c([H])c1[H])C([H])([H])C([H])(C([H])([H])[H])C([H])([H])[H])C([H])([H])C([H])([H])C(=O)N([H])[H])C([H])([H])C([H])([H])C(=O)N([H])[H])C([H])([H])C([H])([H])C(=O)N([H])[H]


 69 70  0  0  0  0  0  0  0  0999 V2000
  -88.3781   28.1367    0.6350 C   0  0  0  0  0  0  0  0  0  0  0  0
  -88.4711   27.0223    1.5728 N   0  0  0  0  0  0  0  0  0  0  0  0
  -89.6226   26.7922    2.3648 C   0  0  0  0  0  0  0  0  0  0  0  0
  -90.5676   27.6291    2.2355 O   0  0  0  0  0  0  0  0  0  0  0  0
  -87.6707   26.3708    1.6672 H   0  0  0  0  0  0  0  0  0  0  0  0
  -89.7984   25.6853    3.2897 C   0  0  0  0  0  0  0  0  0  0  0  0
  -89.8620   24.4313    2.5509 N   0  0  0  0  0  0  0  0  0  0  0  0
  -90.7927   23.4077    2.7760 C   0  0  0  0  0  0  0  0  0  0  0  0
  -91.6513   23.5662    3.7006 O   0  0  0  0  0  0  0  0  0  0  0  0
  -89.1453   24.2719    1.7740 H   0  0  0  0  0  0  0  0  0  0  0  0
  -90.7881   22.1582    1.9626 C   0  0  0  0  0  0  0  0  0  0  0  0
  -89.7031   22.1922    0.9820 N   0  0  0  0  0  0  0  0  0  0  0  0
  -89.9723   22.1717   -0.4111 C   0  0  0  0  0  0  0  0  0  0  0  0
  -91.1621   22.1209   -0.8602 O   0  0  0  0  0  0  0  0  0  0  0  0
  -88.7176   22.2355    1.2957 H   0  0  0  0  0  0  0  0  0  0  0  0
  -90.6078   20.9577    2.8830 C   0  0  0  0  0  0  0  0  0  0  0  0
  -89.6734   19.9437    2.2540 C   0  0  0  0  0  0  0  0  0  0  0  0
  -88.4343   19.7728    3.0384 C   0  0  0  0  0  0  0  0  0  0  0  0
  -87.1682   19.7741    2.4253 N   0  0  0  0  0  0  0  0  0  0  0  0
  -88.5572   19.6230    4.2992 O   0  0  0  0  0  0  0  0  0  0  0  0
  -86.4532   19.0195    2.6108 H   0  0  0  0  0  0  0  0  0  0  0  0
  -86.9189   20.5510    1.7577 H   0  0  0  0  0  0  0  0  0  0  0  0
  -88.5848   25.5639    4.2350 C   0  0  0  0  0  0  0  0  0  0  0  0
  -88.9739   24.9126    5.5233 C   0  0  0  0  0  0  0  0  0  0  0  0
  -88.0523   23.7731    5.7753 C   0  0  0  0  0  0  0  0  0  0  0  0
  -88.2124   22.5115    5.1416 N   0  0  0  0  0  0  0  0  0  0  0  0
  -87.0844   23.8903    6.5716 O   0  0  0  0  0  0  0  0  0  0  0  0
  -87.6213   22.2980    4.3308 H   0  0  0  0  0  0  0  0  0  0  0  0
  -88.9255   21.8642    5.5308 H   0  0  0  0  0  0  0  0  0  0  0  0
  -90.4380   28.2945   -0.9156 N   0  0  0  0  0  0  0  0  0  0  0  0
  -89.1743   27.8257   -0.5747 C   0  0  0  0  0  0  0  0  0  0  0  0
  -88.6012   27.0170   -1.3853 O   0  0  0  0  0  0  0  0  0  0  0  0
  -90.9716   28.9464   -0.3242 H   0  0  0  0  0  0  0  0  0  0  0  0
  -91.0997   27.8703   -2.1773 C   0  0  0  0  0  0  0  0  0  0  0  0
  -91.4350   29.0918   -2.9678 C   0  0  0  0  0  0  0  0  0  0  0  0
  -90.9846   30.1586   -2.4125 O   0  0  0  0  0  0  0  0  0  0  0  0
  -92.1388   29.1363   -4.1572 N   0  0  0  0  0  0  0  0  0  0  0  0
  -92.6680   27.9388   -4.8839 C   0  0  0  0  0  0  0  0  0  0  0  0
  -94.0879   28.3783   -5.1369 C   0  0  0  0  0  0  0  0  0  0  0  0
  -94.1236   29.9008   -4.9065 C   0  0  0  0  0  0  0  0  0  0  0  0
  -92.6120   30.1747   -5.0190 C   0  0  0  0  0  0  0  0  0  0  0  0
  -92.2594   31.5393   -4.8317 C   0  0  0  0  0  0  0  0  0  0  0  0
  -93.1365   32.3290   -4.2925 O   0  0  0  0  0  0  0  0  0  0  0  0
  -91.0352   32.1336   -5.1845 N   0  0  0  0  0  0  0  0  0  0  0  0
  -90.2414   31.6559   -5.6475 H   0  0  0  0  0  0  0  0  0  0  0  0
  -90.7866   33.5701   -4.9328 C   0  0  0  0  0  0  0  0  0  0  0  0
  -91.1233   34.2633   -6.1931 C   0  0  0  0  0  0  0  0  0  0  0  0
  -90.9204   33.7306   -7.4915 N   0  0  0  0  0  0  0  0  0  0  0  0
  -91.6376   35.4403   -6.1891 O   0  0  0  0  0  0  0  0  0  0  0  0
  -91.6237   33.7997   -8.2497 H   0  0  0  0  0  0  0  0  0  0  0  0
  -90.0240   33.2481   -7.6923 H   0  0  0  0  0  0  0  0  0  0  0  0
  -89.3202   33.6550   -4.6279 C   0  0  0  0  0  0  0  0  0  0  0  0
  -88.8907   32.9865   -3.3915 C   0  0  0  0  0  0  0  0  0  0  0  0
  -88.1007   31.8454   -3.5497 C   0  0  0  0  0  0  0  0  0  0  0  0
  -87.6236   31.1592   -2.4607 C   0  0  0  0  0  0  0  0  0  0  0  0
  -87.9381   31.6154   -1.1980 C   0  0  0  0  0  0  0  0  0  0  0  0
  -88.7156   32.7380   -0.9961 C   0  0  0  0  0  0  0  0  0  0  0  0
  -89.1694   33.3925   -2.1073 C   0  0  0  0  0  0  0  0  0  0  0  0
  -92.4055   27.2722   -1.6540 C   0  0  0  0  0  0  0  0  0  0  0  0
  -91.4663   25.1261   -2.5307 C   0  0  0  0  0  0  0  0  0  0  0  0
  -92.6438   25.8516   -1.9691 C   0  0  0  0  0  0  0  0  0  0  0  0
  -93.0505   25.1464   -0.6683 C   0  0  0  0  0  0  0  0  0  0  0  0
  -86.9202   28.3947    0.3460 C   0  0  0  0  0  0  0  0  0  0  0  0
  -86.1595   28.9222    1.5152 C   0  0  0  0  0  0  0  0  0  0  0  0
  -85.0823   28.0513    1.9880 C   0  0  0  0  0  0  0  0  0  0  0  0
  -83.7842   28.5944    2.1592 N   0  0  0  0  0  0  0  0  0  0  0  0
  -85.3030   26.8483    2.2367 O   0  0  0  0  0  0  0  0  0  0  0  0
  -82.9181   28.0167    2.1409 H   0  0  0  0  0  0  0  0  0  0  0  0
  -83.6394   29.6194    2.3137 H   0  0  0  0  0  0  0  0  0  0  0  0
 60 61  1  0  0  0
 61 62  1  0  0  0
 61 59  1  0  0  0
 59 34  1  0  0  0
 34 30  1  0  0  0
 30 31  1  0  0  0
 31 32  2  0  0  0
 31  1  1  0  0  0
  1 63  1  0  0  0
 63 64  1  0  0  0
 64 65  1  0  0  0
 65 66  1  0  0  0
 65 67  2  0  0  0
  1  2  1  0  0  0
  2  3  1  0  0  0
  3  4  2  0  0  0
  3  6  1  0  0  0
  6 23  1  0  0  0
 23 24  1  0  0  0
 24 25  1  0  0  0
 25 26  1  0  0  0
 25 27  2  0  0  0
  6  7  1  0  0  0
  7  8  1  0  0  0
  8  9  2  0  0  0
  8 11  1  0  0  0
 11 16  1  0  0  0
 16 17  1  0  0  0
 17 18  1  0  0  0
 18 19  1  0  0  0
 18 20  2  0  0  0
 11 12  1  0  0  0
 12 13  1  0  0  0
 13 14  2  0  0  0
 34 35  1  0  0  0
 35 36  2  0  0  0
 35 37  1  0  0  0
 37 38  1  0  0  0
 38 39  1  0  0  0
 39 40  1  0  0  0
 40 41  1  0  0  0
 41 42  1  0  0  0
 42 43  2  0  0  0
 42 44  1  0  0  0
 44 46  1  0  0  0
 46 52  1  0  0  0
 52 53  1  0  0  0
 53 54  2  0  0  0
 54 55  1  0  0  0
 55 56  2  0  0  0
 56 57  1  0  0  0
 57 58  2  0  0  0
 46 47  1  0  0  0
 47 48  1  0  0  0
 47 49  2  0  0  0
 41 37  1  0  0  0
 58 53  1  0  0  0
 30 33  1  0  0  0
 66 68  1  0  0  0
 66 69  1  0  0  0
  2  5  1  0  0  0
 26 28  1  0  0  0
 26 29  1  0  0  0
  7 10  1  0  0  0
 19 21  1  0  0  0
 19 22  1  0  0  0
 12 15  1  0  0  0
 44 45  1  0  0  0
 48 50  1  0  0  0
 48 51  1  0  0  0
M  END
> <minimizedAffinity>
-7.91995

> <CNNscore>
0.0298198387

> <CNNaffinity>
6.7028069496

> <CNN_VS>
0.1998766214

> <CNNaffinity_variance>
1.2685878277

$$$$
[H]C(=O)N([H])[C@]([H])(C(=O)N([H])[C@]([H])(C(=O)N([H])[C@]([H])(C(=O)N([H])[C@]([H])(C(=O)N1C([H])([H])C([H])([H])C([H])([H])[C@@]1([H])C(=O)N([H])[C@]([H])(C(=O)N([H])[H])C([H])([H])c1c([H])c([H])c([H])c([H])c1[H])C([H])([H])C([H])(C([H])([H])[H])C([H])([H])[H])C([H])([H])C([H])([H])C(=O)N([H])[H])C([H])([H])C([H])([H])C(=O)N([H])[H])C([H])([H])C([H])([H])C(=O)N([H])[H]


 69 70  0  0  0  0  0  0  0  0999 V2000
  -90.4989   30.1405   -2.0990 C   0  0  0  0  0  0  0  0  0  0  0  0
  -89.2870   29.5475   -1.5428 N   0  0  0  0  0  0  0  0  0  0  0  0
  -89.1925   29.1461   -0.1877 C   0  0  0  0  0  0  0  0  0  0  0  0
  -90.2168   29.3561    0.5313 O   0  0  0  0  0  0  0  0  0  0  0  0
  -88.4623   29.4104   -2.1552 H   0  0  0  0  0  0  0  0  0  0  0  0
  -88.0335   28.5174    0.4232 C   0  0  0  0  0  0  0  0  0  0  0  0
  -87.0057   29.5185    0.6756 N   0  0  0  0  0  0  0  0  0  0  0  0
  -86.1119   30.0175   -0.2818 C   0  0  0  0  0  0  0  0  0  0  0  0
  -86.1843   29.5646   -1.4680 O   0  0  0  0  0  0  0  0  0  0  0  0
  -86.9204   29.9084    1.6673 H   0  0  0  0  0  0  0  0  0  0  0  0
  -85.0950   31.0508    0.0659 C   0  0  0  0  0  0  0  0  0  0  0  0
  -85.5416   32.3732   -0.3720 N   0  0  0  0  0  0  0  0  0  0  0  0
  -84.6112   33.3649   -0.7775 C   0  0  0  0  0  0  0  0  0  0  0  0
  -83.3575   33.1450   -0.7740 O   0  0  0  0  0  0  0  0  0  0  0  0
  -86.5510   32.6018   -0.3947 H   0  0  0  0  0  0  0  0  0  0  0  0
  -84.8780   31.0580    1.5737 C   0  0  0  0  0  0  0  0  0  0  0  0
  -83.5516   30.4123    1.9211 C   0  0  0  0  0  0  0  0  0  0  0  0
  -83.7178   29.0165    2.3729 C   0  0  0  0  0  0  0  0  0  0  0  0
  -82.6327   28.1225    2.4179 N   0  0  0  0  0  0  0  0  0  0  0  0
  -84.8891   28.6513    2.7221 O   0  0  0  0  0  0  0  0  0  0  0  0
  -82.6806   27.1583    1.9900 H   0  0  0  0  0  0  0  0  0  0  0  0
  -81.7392   28.4188    2.8929 H   0  0  0  0  0  0  0  0  0  0  0  0
  -88.3963   27.9203    1.7989 C   0  0  0  0  0  0  0  0  0  0  0  0
  -88.0573   26.4653    1.8562 C   0  0  0  0  0  0  0  0  0  0  0  0
  -88.9411   25.7352    0.9091 C   0  0  0  0  0  0  0  0  0  0  0  0
  -88.4314   24.8417   -0.0712 N   0  0  0  0  0  0  0  0  0  0  0  0
  -90.1902   25.8873    0.9446 O   0  0  0  0  0  0  0  0  0  0  0  0
  -88.4696   23.8354    0.1238 H   0  0  0  0  0  0  0  0  0  0  0  0
  -88.0410   25.2534   -0.9413 H   0  0  0  0  0  0  0  0  0  0  0  0
  -91.3468   27.9142   -3.0977 N   0  0  0  0  0  0  0  0  0  0  0  0
  -91.4967   29.0739   -2.3456 C   0  0  0  0  0  0  0  0  0  0  0  0
  -92.6304   29.2779   -1.7866 O   0  0  0  0  0  0  0  0  0  0  0  0
  -90.4718   27.6698   -3.5814 H   0  0  0  0  0  0  0  0  0  0  0  0
  -92.4650   26.9462   -3.2472 C   0  0  0  0  0  0  0  0  0  0  0  0
  -92.1483   25.7314   -2.4389 C   0  0  0  0  0  0  0  0  0  0  0  0
  -91.0193   25.8394   -1.8366 O   0  0  0  0  0  0  0  0  0  0  0  0
  -92.9312   24.5986   -2.3122 N   0  0  0  0  0  0  0  0  0  0  0  0
  -94.2708   24.4080   -2.9536 C   0  0  0  0  0  0  0  0  0  0  0  0
  -94.0857   23.0457   -3.5728 C   0  0  0  0  0  0  0  0  0  0  0  0
  -92.8461   22.4238   -2.9026 C   0  0  0  0  0  0  0  0  0  0  0  0
  -92.7891   23.3334   -1.6609 C   0  0  0  0  0  0  0  0  0  0  0  0
  -91.7061   23.0449   -0.7860 C   0  0  0  0  0  0  0  0  0  0  0  0
  -90.5287   22.8779   -1.3050 O   0  0  0  0  0  0  0  0  0  0  0  0
  -91.7839   22.9128    0.6114 N   0  0  0  0  0  0  0  0  0  0  0  0
  -92.6467   22.9869    1.1796 H   0  0  0  0  0  0  0  0  0  0  0  0
  -90.5784   22.6139    1.4153 C   0  0  0  0  0  0  0  0  0  0  0  0
  -90.1479   21.2611    1.0067 C   0  0  0  0  0  0  0  0  0  0  0  0
  -88.9206   20.9597    0.3638 N   0  0  0  0  0  0  0  0  0  0  0  0
  -90.8915   20.2345    1.2142 O   0  0  0  0  0  0  0  0  0  0  0  0
  -88.3251   20.1530    0.6265 H   0  0  0  0  0  0  0  0  0  0  0  0
  -88.6030   21.5769   -0.4075 H   0  0  0  0  0  0  0  0  0  0  0  0
  -91.0538   22.6384    2.8379 C   0  0  0  0  0  0  0  0  0  0  0  0
  -90.5255   23.7337    3.6633 C   0  0  0  0  0  0  0  0  0  0  0  0
  -89.2877   23.5075    4.2699 C   0  0  0  0  0  0  0  0  0  0  0  0
  -88.6909   24.4738    5.0409 C   0  0  0  0  0  0  0  0  0  0  0  0
  -89.3359   25.6807    5.2103 C   0  0  0  0  0  0  0  0  0  0  0  0
  -90.5598   25.9463    4.6296 C   0  0  0  0  0  0  0  0  0  0  0  0
  -91.1187   24.9575    3.8688 C   0  0  0  0  0  0  0  0  0  0  0  0
  -92.3536   26.5732   -4.7254 C   0  0  0  0  0  0  0  0  0  0  0  0
  -94.0655   25.9838   -6.4511 C   0  0  0  0  0  0  0  0  0  0  0  0
  -93.4450   27.0410   -5.5995 C   0  0  0  0  0  0  0  0  0  0  0  0
  -94.5450   27.6237   -4.7020 C   0  0  0  0  0  0  0  0  0  0  0  0
  -90.1245   30.9127   -3.3396 C   0  0  0  0  0  0  0  0  0  0  0  0
  -90.1208   32.3917   -3.1491 C   0  0  0  0  0  0  0  0  0  0  0  0
  -88.8279   32.9551   -2.7571 C   0  0  0  0  0  0  0  0  0  0  0  0
  -88.7021   34.3607   -2.6250 N   0  0  0  0  0  0  0  0  0  0  0  0
  -87.8505   32.2091   -2.5425 O   0  0  0  0  0  0  0  0  0  0  0  0
  -87.7923   34.8611   -2.7032 H   0  0  0  0  0  0  0  0  0  0  0  0
  -89.5354   34.9665   -2.4401 H   0  0  0  0  0  0  0  0  0  0  0  0
 60 61  1  0  0  0
 61 62  1  0  0  0
 61 59  1  0  0  0
 59 34  1  0  0  0
 34 30  1  0  0  0
 30 31  1  0  0  0
 31 32  2  0  0  0
 31  1  1  0  0  0
  1 63  1  0  0  0
 63 64  1  0  0  0
 64 65  1  0  0  0
 65 66  1  0  0  0
 65 67  2  0  0  0
  1  2  1  0  0  0
  2  3  1  0  0  0
  3  4  2  0  0  0
  3  6  1  0  0  0
  6 23  1  0  0  0
 23 24  1  0  0  0
 24 25  1  0  0  0
 25 26  1  0  0  0
 25 27  2  0  0  0
  6  7  1  0  0  0
  7  8  1  0  0  0
  8  9  2  0  0  0
  8 11  1  0  0  0
 11 16  1  0  0  0
 16 17  1  0  0  0
 17 18  1  0  0  0
 18 19  1  0  0  0
 18 20  2  0  0  0
 11 12  1  0  0  0
 12 13  1  0  0  0
 13 14  2  0  0  0
 34 35  1  0  0  0
 35 36  2  0  0  0
 35 37  1  0  0  0
 37 38  1  0  0  0
 38 39  1  0  0  0
 39 40  1  0  0  0
 40 41  1  0  0  0
 41 42  1  0  0  0
 42 43  2  0  0  0
 42 44  1  0  0  0
 44 46  1  0  0  0
 46 52  1  0  0  0
 52 53  1  0  0  0
 53 54  2  0  0  0
 54 55  1  0  0  0
 55 56  2  0  0  0
 56 57  1  0  0  0
 57 58  2  0  0  0
 46 47  1  0  0  0
 47 48  1  0  0  0
 47 49  2  0  0  0
 41 37  1  0  0  0
 58 53  1  0  0  0
 30 33  1  0  0  0
 66 68  1  0  0  0
 66 69  1  0  0  0
  2  5  1  0  0  0
 26 28  1  0  0  0
 26 29  1  0  0  0
  7 10  1  0  0  0
 19 21  1  0  0  0
 19 22  1  0  0  0
 12 15  1  0  0  0
 44 45  1  0  0  0
 48 50  1  0  0  0
 48 51  1  0  0  0
M  END
> <minimizedAffinity>
-7.41597

> <CNNscore>
0.0262018237

> <CNNaffinity>
7.3188219070

> <CNN_VS>
0.1917664856

> <CNNaffinity_variance>
0.3071385324

$$$$
[H]C(=O)N([H])[C@]([H])(C(=O)N([H])[C@]([H])(C(=O)N([H])[C@]([H])(C(=O)N([H])[C@]([H])(C(=O)N1C([H])([H])C([H])([H])C([H])([H])[C@@]1([H])C(=O)N([H])[C@]([H])(C(=O)N([H])[H])C([H])([H])c1c([H])c([H])c([H])c([H])c1[H])C([H])([H])C([H])(C([H])([H])[H])C([H])([H])[H])C([H])([H])C([H])([H])C(=O)N([H])[H])C([H])([H])C([H])([H])C(=O)N([H])[H])C([H])([H])C([H])([H])C(=O)N([H])[H]


 69 70  0  0  0  0  0  0  0  0999 V2000
  -92.8581   26.6788   -5.1487 C   0  0  0  0  0  0  0  0  0  0  0  0
  -93.4922   26.1212   -3.9584 N   0  0  0  0  0  0  0  0  0  0  0  0
  -92.7456   25.5495   -2.8991 C   0  0  0  0  0  0  0  0  0  0  0  0
  -91.4862   25.5223   -3.0525 O   0  0  0  0  0  0  0  0  0  0  0  0
  -94.5250   26.1419   -3.8772 H   0  0  0  0  0  0  0  0  0  0  0  0
  -93.3064   25.0102   -1.6718 C   0  0  0  0  0  0  0  0  0  0  0  0
  -92.4839   25.4088   -0.5374 N   0  0  0  0  0  0  0  0  0  0  0  0
  -91.6998   24.5418    0.2359 C   0  0  0  0  0  0  0  0  0  0  0  0
  -91.7020   23.3042   -0.0569 O   0  0  0  0  0  0  0  0  0  0  0  0
  -92.4722   26.4430   -0.2672 H   0  0  0  0  0  0  0  0  0  0  0  0
  -90.8806   25.0413    1.3770 C   0  0  0  0  0  0  0  0  0  0  0  0
  -90.1389   23.9407    1.9924 N   0  0  0  0  0  0  0  0  0  0  0  0
  -90.5992   23.3212    3.1832 C   0  0  0  0  0  0  0  0  0  0  0  0
  -91.6686   23.6981    3.7612 O   0  0  0  0  0  0  0  0  0  0  0  0
  -89.2637   23.5957    1.5606 H   0  0  0  0  0  0  0  0  0  0  0  0
  -89.9044   26.0968    0.8734 C   0  0  0  0  0  0  0  0  0  0  0  0
  -89.7159   27.1831    1.9133 C   0  0  0  0  0  0  0  0  0  0  0  0
  -90.9050   28.0506    2.0283 C   0  0  0  0  0  0  0  0  0  0  0  0
  -91.5065   28.6299    0.8962 N   0  0  0  0  0  0  0  0  0  0  0  0
  -91.3676   28.2554    3.1993 O   0  0  0  0  0  0  0  0  0  0  0  0
  -91.7361   29.6594    0.8466 H   0  0  0  0  0  0  0  0  0  0  0  0
  -91.7381   28.0217    0.0667 H   0  0  0  0  0  0  0  0  0  0  0  0
  -94.7102   25.5942   -1.4086 C   0  0  0  0  0  0  0  0  0  0  0  0
  -95.6583   24.5271   -0.9641 C   0  0  0  0  0  0  0  0  0  0  0  0
  -95.8500   23.5673   -2.0837 C   0  0  0  0  0  0  0  0  0  0  0  0
  -96.3800   23.9625   -3.3414 N   0  0  0  0  0  0  0  0  0  0  0  0
  -95.5444   22.3532   -1.9520 O   0  0  0  0  0  0  0  0  0  0  0  0
  -95.7249   24.1247   -4.1140 H   0  0  0  0  0  0  0  0  0  0  0  0
  -97.4103   24.0707   -3.4171 H   0  0  0  0  0  0  0  0  0  0  0  0
  -93.0325   28.9250   -3.8851 N   0  0  0  0  0  0  0  0  0  0  0  0
  -92.7578   28.1497   -5.0060 C   0  0  0  0  0  0  0  0  0  0  0  0
  -92.3724   28.7537   -6.0671 O   0  0  0  0  0  0  0  0  0  0  0  0
  -93.3473   28.5244   -2.9908 H   0  0  0  0  0  0  0  0  0  0  0  0
  -92.8839   30.4037   -3.9191 C   0  0  0  0  0  0  0  0  0  0  0  0
  -91.4482   30.7389   -3.6831 C   0  0  0  0  0  0  0  0  0  0  0  0
  -90.9077   29.9488   -2.8272 O   0  0  0  0  0  0  0  0  0  0  0  0
  -90.7312   31.7594   -4.2804 N   0  0  0  0  0  0  0  0  0  0  0  0
  -91.2772   32.7008   -5.3089 C   0  0  0  0  0  0  0  0  0  0  0  0
  -90.8358   34.0219   -4.7316 C   0  0  0  0  0  0  0  0  0  0  0  0
  -89.7573   33.7025   -3.6793 C   0  0  0  0  0  0  0  0  0  0  0  0
  -89.4053   32.2793   -4.1518 C   0  0  0  0  0  0  0  0  0  0  0  0
  -88.4105   31.6408   -3.3617 C   0  0  0  0  0  0  0  0  0  0  0  0
  -87.5331   30.8995   -3.9652 O   0  0  0  0  0  0  0  0  0  0  0  0
  -88.2822   31.7270   -1.9644 N   0  0  0  0  0  0  0  0  0  0  0  0
  -88.9116   32.2501   -1.3296 H   0  0  0  0  0  0  0  0  0  0  0  0
  -87.1962   31.0156   -1.2550 C   0  0  0  0  0  0  0  0  0  0  0  0
  -87.8468   29.8970   -0.5422 C   0  0  0  0  0  0  0  0  0  0  0  0
  -87.2666   28.6200   -0.3347 N   0  0  0  0  0  0  0  0  0  0  0  0
  -89.0274   30.0173   -0.0506 O   0  0  0  0  0  0  0  0  0  0  0  0
  -87.3143   28.1148    0.5691 H   0  0  0  0  0  0  0  0  0  0  0  0
  -86.7699   28.1692   -1.1264 H   0  0  0  0  0  0  0  0  0  0  0  0
  -86.6360   32.0294   -0.3017 C   0  0  0  0  0  0  0  0  0  0  0  0
  -85.2386   31.8159    0.1007 C   0  0  0  0  0  0  0  0  0  0  0  0
  -84.2847   32.6144   -0.5346 C   0  0  0  0  0  0  0  0  0  0  0  0
  -82.9534   32.5151   -0.2152 C   0  0  0  0  0  0  0  0  0  0  0  0
  -82.5674   31.6082    0.7491 C   0  0  0  0  0  0  0  0  0  0  0  0
  -83.4764   30.7995    1.4014 C   0  0  0  0  0  0  0  0  0  0  0  0
  -84.7921   30.9309    1.0543 C   0  0  0  0  0  0  0  0  0  0  0  0
  -93.6770   30.8212   -2.6808 C   0  0  0  0  0  0  0  0  0  0  0  0
  -95.8828   31.5350   -1.7420 C   0  0  0  0  0  0  0  0  0  0  0  0
  -95.1458   30.7952   -2.8086 C   0  0  0  0  0  0  0  0  0  0  0  0
  -95.5088   31.4332   -4.1562 C   0  0  0  0  0  0  0  0  0  0  0  0
  -93.6494   26.2439   -6.3571 C   0  0  0  0  0  0  0  0  0  0  0  0
  -94.3028   24.9125   -6.2008 C   0  0  0  0  0  0  0  0  0  0  0  0
  -95.5695   24.7643   -6.9191 C   0  0  0  0  0  0  0  0  0  0  0  0
  -96.2256   25.9242   -7.4023 N   0  0  0  0  0  0  0  0  0  0  0  0
  -96.0649   23.6336   -7.1035 O   0  0  0  0  0  0  0  0  0  0  0  0
  -97.2484   25.9620   -7.5937 H   0  0  0  0  0  0  0  0  0  0  0  0
  -95.6987   26.8088   -7.5901 H   0  0  0  0  0  0  0  0  0  0  0  0
 60 61  1  0  0  0
 61 62  1  0  0  0
 61 59  1  0  0  0
 59 34  1  0  0  0
 34 30  1  0  0  0
 30 31  1  0  0  0
 31 32  2  0  0  0
 31  1  1  0  0  0
  1 63  1  0  0  0
 63 64  1  0  0  0
 64 65  1  0  0  0
 65 66  1  0  0  0
 65 67  2  0  0  0
  1  2  1  0  0  0
  2  3  1  0  0  0
  3  4  2  0  0  0
  3  6  1  0  0  0
  6 23  1  0  0  0
 23 24  1  0  0  0
 24 25  1  0  0  0
 25 26  1  0  0  0
 25 27  2  0  0  0
  6  7  1  0  0  0
  7  8  1  0  0  0
  8  9  2  0  0  0
  8 11  1  0  0  0
 11 16  1  0  0  0
 16 17  1  0  0  0
 17 18  1  0  0  0
 18 19  1  0  0  0
 18 20  2  0  0  0
 11 12  1  0  0  0
 12 13  1  0  0  0
 13 14  2  0  0  0
 34 35  1  0  0  0
 35 36  2  0  0  0
 35 37  1  0  0  0
 37 38  1  0  0  0
 38 39  1  0  0  0
 39 40  1  0  0  0
 40 41  1  0  0  0
 41 42  1  0  0  0
 42 43  2  0  0  0
 42 44  1  0  0  0
 44 46  1  0  0  0
 46 52  1  0  0  0
 52 53  1  0  0  0
 53 54  2  0  0  0
 54 55  1  0  0  0
 55 56  2  0  0  0
 56 57  1  0  0  0
 57 58  2  0  0  0
 46 47  1  0  0  0
 47 48  1  0  0  0
 47 49  2  0  0  0
 41 37  1  0  0  0
 58 53  1  0  0  0
 30 33  1  0  0  0
 66 68  1  0  0  0
 66 69  1  0  0  0
  2  5  1  0  0  0
 26 28  1  0  0  0
 26 29  1  0  0  0
  7 10  1  0  0  0
 19 21  1  0  0  0
 19 22  1  0  0  0
 12 15  1  0  0  0
 44 45  1  0  0  0
 48 50  1  0  0  0
 48 51  1  0  0  0
M  END
> <minimizedAffinity>
-7.27211

> <CNNscore>
0.0259575080

> <CNNaffinity>
6.3308897018

> <CNN_VS>
0.1643341184

> <CNNaffinity_variance>
0.9985938072

$$$$
[H]C(=O)N([H])[C@]([H])(C(=O)N([H])[C@]([H])(C(=O)N([H])[C@]([H])(C(=O)N([H])[C@]([H])(C(=O)N1C([H])([H])C([H])([H])C([H])([H])[C@@]1([H])C(=O)N([H])[C@]([H])(C(=O)N([H])[H])C([H])([H])c1c([H])c([H])c([H])c([H])c1[H])C([H])([H])C([H])(C([H])([H])[H])C([H])([H])[H])C([H])([H])C([H])([H])C(=O)N([H])[H])C([H])([H])C([H])([H])C(=O)N([H])[H])C([H])([H])C([H])([H])C(=O)N([H])[H]


 69 70  0  0  0  0  0  0  0  0999 V2000
  -93.3399   26.3932   -5.4710 C   0  0  0  0  0  0  0  0  0  0  0  0
  -94.0593   26.0074   -4.2613 N   0  0  0  0  0  0  0  0  0  0  0  0
  -93.4929   25.1554   -3.2816 C   0  0  0  0  0  0  0  0  0  0  0  0
  -92.3267   24.7189   -3.5259 O   0  0  0  0  0  0  0  0  0  0  0  0
  -95.0187   26.3668   -4.1055 H   0  0  0  0  0  0  0  0  0  0  0  0
  -94.1353   24.7602   -2.0396 C   0  0  0  0  0  0  0  0  0  0  0  0
  -93.1258   24.3594   -1.0686 N   0  0  0  0  0  0  0  0  0  0  0  0
  -92.2499   25.2315   -0.4076 C   0  0  0  0  0  0  0  0  0  0  0  0
  -92.3227   26.4734   -0.6714 O   0  0  0  0  0  0  0  0  0  0  0  0
  -93.0405   23.3195   -0.8365 H   0  0  0  0  0  0  0  0  0  0  0  0
  -91.2513   24.7316    0.5801 C   0  0  0  0  0  0  0  0  0  0  0  0
  -90.8426   25.8087    1.4817 N   0  0  0  0  0  0  0  0  0  0  0  0
  -89.4798   26.1839    1.6061 C   0  0  0  0  0  0  0  0  0  0  0  0
  -88.5636   25.5996    0.9435 O   0  0  0  0  0  0  0  0  0  0  0  0
  -91.5497   26.3166    2.0417 H   0  0  0  0  0  0  0  0  0  0  0  0
  -91.8654   23.5948    1.3873 C   0  0  0  0  0  0  0  0  0  0  0  0
  -90.8871   22.4438    1.5103 C   0  0  0  0  0  0  0  0  0  0  0  0
  -90.3490   22.0332    0.1982 C   0  0  0  0  0  0  0  0  0  0  0  0
  -88.9655   22.0067   -0.0551 N   0  0  0  0  0  0  0  0  0  0  0  0
  -91.1913   21.7021   -0.7009 O   0  0  0  0  0  0  0  0  0  0  0  0
  -88.5415   22.4623   -0.9082 H   0  0  0  0  0  0  0  0  0  0  0  0
  -88.3255   21.5176    0.6252 H   0  0  0  0  0  0  0  0  0  0  0  0
  -94.8866   25.9512   -1.4088 C   0  0  0  0  0  0  0  0  0  0  0  0
  -96.1799   26.2021   -2.1157 C   0  0  0  0  0  0  0  0  0  0  0  0
  -96.2986   27.6601   -2.3831 C   0  0  0  0  0  0  0  0  0  0  0  0
  -96.5242   28.6069   -1.3478 N   0  0  0  0  0  0  0  0  0  0  0  0
  -96.2020   28.1111   -3.5544 O   0  0  0  0  0  0  0  0  0  0  0  0
  -95.7212   29.1376   -0.9931 H   0  0  0  0  0  0  0  0  0  0  0  0
  -97.4960   28.7144   -0.9972 H   0  0  0  0  0  0  0  0  0  0  0  0
  -93.2801   28.7330   -4.3782 N   0  0  0  0  0  0  0  0  0  0  0  0
  -93.0171   27.8375   -5.4086 C   0  0  0  0  0  0  0  0  0  0  0  0
  -92.4271   28.2878   -6.4519 O   0  0  0  0  0  0  0  0  0  0  0  0
  -93.7498   28.4588   -3.5044 H   0  0  0  0  0  0  0  0  0  0  0  0
  -92.8897   30.1633   -4.4857 C   0  0  0  0  0  0  0  0  0  0  0  0
  -91.4563   30.2921   -4.0881 C   0  0  0  0  0  0  0  0  0  0  0  0
  -91.0533   29.2738   -3.4175 O   0  0  0  0  0  0  0  0  0  0  0  0
  -90.6132   31.3498   -4.3754 N   0  0  0  0  0  0  0  0  0  0  0  0
  -90.9952   32.5556   -5.1768 C   0  0  0  0  0  0  0  0  0  0  0  0
  -90.4990   33.6540   -4.2709 C   0  0  0  0  0  0  0  0  0  0  0  0
  -89.5403   32.9922   -3.2633 C   0  0  0  0  0  0  0  0  0  0  0  0
  -89.2652   31.6931   -4.0437 C   0  0  0  0  0  0  0  0  0  0  0  0
  -88.3933   30.7927   -3.3724 C   0  0  0  0  0  0  0  0  0  0  0  0
  -87.6323   30.0273   -4.0924 O   0  0  0  0  0  0  0  0  0  0  0  0
  -88.2744   30.6394   -1.9800 N   0  0  0  0  0  0  0  0  0  0  0  0
  -88.8248   31.1486   -1.2655 H   0  0  0  0  0  0  0  0  0  0  0  0
  -87.3227   29.6662   -1.4006 C   0  0  0  0  0  0  0  0  0  0  0  0
  -88.0768   28.4042   -1.2548 C   0  0  0  0  0  0  0  0  0  0  0  0
  -87.5704   27.1162   -1.5631 N   0  0  0  0  0  0  0  0  0  0  0  0
  -89.2876   28.3976   -0.8262 O   0  0  0  0  0  0  0  0  0  0  0  0
  -87.7138   26.2893   -0.9548 H   0  0  0  0  0  0  0  0  0  0  0  0
  -87.0299   26.9955   -2.4405 H   0  0  0  0  0  0  0  0  0  0  0  0
  -86.9491   30.2459   -0.0683 C   0  0  0  0  0  0  0  0  0  0  0  0
  -85.6618   30.9536   -0.0241 C   0  0  0  0  0  0  0  0  0  0  0  0
  -84.5643   30.2108    0.4176 C   0  0  0  0  0  0  0  0  0  0  0  0
  -83.3103   30.7666    0.4730 C   0  0  0  0  0  0  0  0  0  0  0  0
  -83.1478   32.0794    0.0838 C   0  0  0  0  0  0  0  0  0  0  0  0
  -84.2045   32.8496   -0.3587 C   0  0  0  0  0  0  0  0  0  0  0  0
  -85.4360   32.2574   -0.3995 C   0  0  0  0  0  0  0  0  0  0  0  0
  -93.7440   30.7987   -3.3888 C   0  0  0  0  0  0  0  0  0  0  0  0
  -95.0715   32.9047   -3.1467 C   0  0  0  0  0  0  0  0  0  0  0  0
  -94.8992   31.5951   -3.8419 C   0  0  0  0  0  0  0  0  0  0  0  0
  -94.7117   31.8810   -5.3378 C   0  0  0  0  0  0  0  0  0  0  0  0
  -94.1806   26.0155   -6.6652 C   0  0  0  0  0  0  0  0  0  0  0  0
  -94.4369   24.5510   -6.7812 C   0  0  0  0  0  0  0  0  0  0  0  0
  -95.8374   24.1597   -6.6145 C   0  0  0  0  0  0  0  0  0  0  0  0
  -96.5378   23.6224   -7.7235 N   0  0  0  0  0  0  0  0  0  0  0  0
  -96.4069   24.2969   -5.5123 O   0  0  0  0  0  0  0  0  0  0  0  0
  -97.5751   23.6502   -7.8100 H   0  0  0  0  0  0  0  0  0  0  0  0
  -96.0312   23.1667   -8.5180 H   0  0  0  0  0  0  0  0  0  0  0  0
 60 61  1  0  0  0
 61 62  1  0  0  0
 61 59  1  0  0  0
 59 34  1  0  0  0
 34 30  1  0  0  0
 30 31  1  0  0  0
 31 32  2  0  0  0
 31  1  1  0  0  0
  1 63  1  0  0  0
 63 64  1  0  0  0
 64 65  1  0  0  0
 65 66  1  0  0  0
 65 67  2  0  0  0
  1  2  1  0  0  0
  2  3  1  0  0  0
  3  4  2  0  0  0
  3  6  1  0  0  0
  6 23  1  0  0  0
 23 24  1  0  0  0
 24 25  1  0  0  0
 25 26  1  0  0  0
 25 27  2  0  0  0
  6  7  1  0  0  0
  7  8  1  0  0  0
  8  9  2  0  0  0
  8 11  1  0  0  0
 11 16  1  0  0  0
 16 17  1  0  0  0
 17 18  1  0  0  0
 18 19  1  0  0  0
 18 20  2  0  0  0
 11 12  1  0  0  0
 12 13  1  0  0  0
 13 14  2  0  0  0
 34 35  1  0  0  0
 35 36  2  0  0  0
 35 37  1  0  0  0
 37 38  1  0  0  0
 38 39  1  0  0  0
 39 40  1  0  0  0
 40 41  1  0  0  0
 41 42  1  0  0  0
 42 43  2  0  0  0
 42 44  1  0  0  0
 44 46  1  0  0  0
 46 52  1  0  0  0
 52 53  1  0  0  0
 53 54  2  0  0  0
 54 55  1  0  0  0
 55 56  2  0  0  0
 56 57  1  0  0  0
 57 58  2  0  0  0
 46 47  1  0  0  0
 47 48  1  0  0  0
 47 49  2  0  0  0
 41 37  1  0  0  0
 58 53  1  0  0  0
 30 33  1  0  0  0
 66 68  1  0  0  0
 66 69  1  0  0  0
  2  5  1  0  0  0
 26 28  1  0  0  0
 26 29  1  0  0  0
  7 10  1  0  0  0
 19 21  1  0  0  0
 19 22  1  0  0  0
 12 15  1  0  0  0
 44 45  1  0  0  0
 48 50  1  0  0  0
 48 51  1  0  0  0
M  END
> <minimizedAffinity>
-6.83843

> <CNNscore>
0.0255299956

> <CNNaffinity>
6.5198845863

> <CNN_VS>
0.1664526314

> <CNNaffinity_variance>
0.6200643182

$$$$
[H]C(=O)N([H])[C@]([H])(C(=O)N([H])[C@]([H])(C(=O)N([H])[C@]([H])(C(=O)N([H])[C@]([H])(C(=O)N1C([H])([H])C([H])([H])C([H])([H])[C@@]1([H])C(=O)N([H])[C@]([H])(C(=O)N([H])[H])C([H])([H])c1c([H])c([H])c([H])c([H])c1[H])C([H])([H])C([H])(C([H])([H])[H])C([H])([H])[H])C([H])([H])C([H])([H])C(=O)N([H])[H])C([H])([H])C([H])([H])C(=O)N([H])[H])C([H])([H])C([H])([H])C(=O)N([H])[H]


 69 70  0  0  0  0  0  0  0  0999 V2000
  -92.1985   30.6135   -2.7261 C   0  0  0  0  0  0  0  0  0  0  0  0
  -91.0794   31.5435   -2.6148 N   0  0  0  0  0  0  0  0  0  0  0  0
  -90.1431   31.4793   -1.5538 C   0  0  0  0  0  0  0  0  0  0  0  0
  -90.3456   30.5798   -0.6820 O   0  0  0  0  0  0  0  0  0  0  0  0
  -90.9577   32.2790   -3.3346 H   0  0  0  0  0  0  0  0  0  0  0  0
  -88.9874   32.3467   -1.3999 C   0  0  0  0  0  0  0  0  0  0  0  0
  -87.8573   31.5771   -0.8971 N   0  0  0  0  0  0  0  0  0  0  0  0
  -86.6384   32.1193   -0.4671 C   0  0  0  0  0  0  0  0  0  0  0  0
  -86.4870   33.3809   -0.5219 O   0  0  0  0  0  0  0  0  0  0  0  0
  -87.9581   30.5140   -0.8491 H   0  0  0  0  0  0  0  0  0  0  0  0
  -85.5369   31.2530    0.0418 C   0  0  0  0  0  0  0  0  0  0  0  0
  -84.6928   31.9977    0.9761 N   0  0  0  0  0  0  0  0  0  0  0  0
  -83.2838   32.0444    0.8146 C   0  0  0  0  0  0  0  0  0  0  0  0
  -82.7015   31.4416   -0.1433 O   0  0  0  0  0  0  0  0  0  0  0  0
  -85.1177   32.5066    1.7710 H   0  0  0  0  0  0  0  0  0  0  0  0
  -86.1328   30.0407    0.7461 C   0  0  0  0  0  0  0  0  0  0  0  0
  -85.0863   28.9571    0.9121 C   0  0  0  0  0  0  0  0  0  0  0  0
  -84.8561   28.6240    2.3319 C   0  0  0  0  0  0  0  0  0  0  0  0
  -85.2299   29.5028    3.3648 N   0  0  0  0  0  0  0  0  0  0  0  0
  -84.3024   27.5034    2.5866 O   0  0  0  0  0  0  0  0  0  0  0  0
  -84.5651   29.7760    4.1385 H   0  0  0  0  0  0  0  0  0  0  0  0
  -86.2043   29.9055    3.3725 H   0  0  0  0  0  0  0  0  0  0  0  0
  -88.5446   32.9157   -2.7641 C   0  0  0  0  0  0  0  0  0  0  0  0
  -88.7652   34.3932   -2.8240 C   0  0  0  0  0  0  0  0  0  0  0  0
  -87.5669   35.0267   -3.4357 C   0  0  0  0  0  0  0  0  0  0  0  0
  -86.3061   34.3736   -3.4901 N   0  0  0  0  0  0  0  0  0  0  0  0
  -87.6308   36.1812   -3.9334 O   0  0  0  0  0  0  0  0  0  0  0  0
  -86.0307   33.9242   -4.3701 H   0  0  0  0  0  0  0  0  0  0  0  0
  -85.7225   34.3813   -2.6308 H   0  0  0  0  0  0  0  0  0  0  0  0
  -91.3459   28.1786   -2.5968 N   0  0  0  0  0  0  0  0  0  0  0  0
  -91.7141   29.3297   -3.2840 C   0  0  0  0  0  0  0  0  0  0  0  0
  -91.6302   29.3123   -4.5616 O   0  0  0  0  0  0  0  0  0  0  0  0
  -91.3814   28.1035   -1.5709 H   0  0  0  0  0  0  0  0  0  0  0  0
  -90.8711   26.9706   -3.3214 C   0  0  0  0  0  0  0  0  0  0  0  0
  -91.7512   25.8226   -2.9517 C   0  0  0  0  0  0  0  0  0  0  0  0
  -91.1883   25.0443   -2.0994 O   0  0  0  0  0  0  0  0  0  0  0  0
  -93.0239   25.5721   -3.4309 N   0  0  0  0  0  0  0  0  0  0  0  0
  -93.7613   26.4451   -4.3986 C   0  0  0  0  0  0  0  0  0  0  0  0
  -94.2183   25.4159   -5.4013 C   0  0  0  0  0  0  0  0  0  0  0  0
  -94.0610   24.0421   -4.7228 C   0  0  0  0  0  0  0  0  0  0  0  0
  -93.9849   24.5266   -3.2627 C   0  0  0  0  0  0  0  0  0  0  0  0
  -93.8123   23.4786   -2.3174 C   0  0  0  0  0  0  0  0  0  0  0  0
  -93.8541   22.2549   -2.7468 O   0  0  0  0  0  0  0  0  0  0  0  0
  -93.6033   23.6362   -0.9362 N   0  0  0  0  0  0  0  0  0  0  0  0
  -93.5713   24.5379   -0.4276 H   0  0  0  0  0  0  0  0  0  0  0  0
  -93.4326   22.4610   -0.0539 C   0  0  0  0  0  0  0  0  0  0  0  0
  -94.7150   22.3071    0.6634 C   0  0  0  0  0  0  0  0  0  0  0  0
  -95.3094   21.0662    1.0056 N   0  0  0  0  0  0  0  0  0  0  0  0
  -95.3988   23.3300    1.0321 O   0  0  0  0  0  0  0  0  0  0  0  0
  -95.7364   20.8772    1.9310 H   0  0  0  0  0  0  0  0  0  0  0  0
  -95.3174   20.3102    0.2949 H   0  0  0  0  0  0  0  0  0  0  0  0
  -92.3192   22.8420    0.8766 C   0  0  0  0  0  0  0  0  0  0  0  0
  -91.5538   21.7212    1.4405 C   0  0  0  0  0  0  0  0  0  0  0  0
  -90.7032   22.0286    2.5050 C   0  0  0  0  0  0  0  0  0  0  0  0
  -89.9618   21.0522    3.1225 C   0  0  0  0  0  0  0  0  0  0  0  0
  -90.0688   19.7530    2.6733 C   0  0  0  0  0  0  0  0  0  0  0  0
  -90.8966   19.4050    1.6248 C   0  0  0  0  0  0  0  0  0  0  0  0
  -91.6181   20.4073    1.0385 C   0  0  0  0  0  0  0  0  0  0  0  0
  -89.5028   26.7441   -2.6785 C   0  0  0  0  0  0  0  0  0  0  0  0
  -88.3993   27.4561   -0.5498 C   0  0  0  0  0  0  0  0  0  0  0  0
  -88.9712   27.8561   -1.8693 C   0  0  0  0  0  0  0  0  0  0  0  0
  -87.8545   28.5301   -2.6778 C   0  0  0  0  0  0  0  0  0  0  0  0
  -93.2758   31.2632   -3.5587 C   0  0  0  0  0  0  0  0  0  0  0  0
  -94.4380   31.7524   -2.7627 C   0  0  0  0  0  0  0  0  0  0  0  0
  -95.4397   30.7314   -2.4511 C   0  0  0  0  0  0  0  0  0  0  0  0
  -96.1473   30.1157   -3.5139 N   0  0  0  0  0  0  0  0  0  0  0  0
  -95.6676   30.4077   -1.2675 O   0  0  0  0  0  0  0  0  0  0  0  0
  -97.0805   29.6696   -3.3938 H   0  0  0  0  0  0  0  0  0  0  0  0
  -95.7535   30.0838   -4.4831 H   0  0  0  0  0  0  0  0  0  0  0  0
 60 61  1  0  0  0
 61 62  1  0  0  0
 61 59  1  0  0  0
 59 34  1  0  0  0
 34 30  1  0  0  0
 30 31  1  0  0  0
 31 32  2  0  0  0
 31  1  1  0  0  0
  1 63  1  0  0  0
 63 64  1  0  0  0
 64 65  1  0  0  0
 65 66  1  0  0  0
 65 67  2  0  0  0
  1  2  1  0  0  0
  2  3  1  0  0  0
  3  4  2  0  0  0
  3  6  1  0  0  0
  6 23  1  0  0  0
 23 24  1  0  0  0
 24 25  1  0  0  0
 25 26  1  0  0  0
 25 27  2  0  0  0
  6  7  1  0  0  0
  7  8  1  0  0  0
  8  9  2  0  0  0
  8 11  1  0  0  0
 11 16  1  0  0  0
 16 17  1  0  0  0
 17 18  1  0  0  0
 18 19  1  0  0  0
 18 20  2  0  0  0
 11 12  1  0  0  0
 12 13  1  0  0  0
 13 14  2  0  0  0
 34 35  1  0  0  0
 35 36  2  0  0  0
 35 37  1  0  0  0
 37 38  1  0  0  0
 38 39  1  0  0  0
 39 40  1  0  0  0
 40 41  1  0  0  0
 41 42  1  0  0  0
 42 43  2  0  0  0
 42 44  1  0  0  0
 44 46  1  0  0  0
 46 52  1  0  0  0
 52 53  1  0  0  0
 53 54  2  0  0  0
 54 55  1  0  0  0
 55 56  2  0  0  0
 56 57  1  0  0  0
 57 58  2  0  0  0
 46 47  1  0  0  0
 47 48  1  0  0  0
 47 49  2  0  0  0
 41 37  1  0  0  0
 58 53  1  0  0  0
 30 33  1  0  0  0
 66 68  1  0  0  0
 66 69  1  0  0  0
  2  5  1  0  0  0
 26 28  1  0  0  0
 26 29  1  0  0  0
  7 10  1  0  0  0
 19 21  1  0  0  0
 19 22  1  0  0  0
 12 15  1  0  0  0
 44 45  1  0  0  0
 48 50  1  0  0  0
 48 51  1  0  0  0
M  END
> <minimizedAffinity>
-7.18058

> <CNNscore>
0.0245914590

> <CNNaffinity>
6.3016762733

> <CNN_VS>
0.1549674124

> <CNNaffinity_variance>
0.9753835797

$$$$
[H]c1nc(N([H])c2c([H])c([H])c(N3C([H])([H])C([H])([H])C([H])(N4C([H])([H])C([H])([H])N(C([H])([H])[H])C([H])([H])C4([H])[H])C([H])([H])C3([H])[H])c([H])c2OC([H])([H])[H])nc(N([H])c2c([H])c([H])c([H])c([H])c2S(=O)(=O)C([H])(C([H])([H])[H])C([H])([H])[H])c1Cl


 44 48  0  0  0  0  0  0  0  0999 V2000
  -86.1661   33.9426   -3.2243 N   0  0  0  0  0  0  0  0  0  0  0  0
  -85.4111   34.6146   -3.6111 H   0  0  0  0  0  0  0  0  0  0  0  0
  -85.8285   33.2385   -2.0383 C   0  0  0  0  0  0  0  0  0  0  0  0
  -84.7163   33.3967   -1.3163 N   0  0  0  0  0  0  0  0  0  0  0  0
  -84.4607   32.6982   -0.2031 C   0  0  0  0  0  0  0  0  0  0  0  0
  -85.3675   31.7659    0.2438 C   0  0  0  0  0  0  0  0  0  0  0  0
  -85.0486   30.8379    1.7060 Cl  0  0  0  0  0  0  0  0  0  0  0  0
  -86.5505   31.5794   -0.5008 C   0  0  0  0  0  0  0  0  0  0  0  0
  -86.7132   32.3241   -1.5962 N   0  0  0  0  0  0  0  0  0  0  0  0
  -87.4599   30.6237   -0.0222 N   0  0  0  0  0  0  0  0  0  0  0  0
  -87.1126   30.0677    0.8270 H   0  0  0  0  0  0  0  0  0  0  0  0
  -88.7451   30.2625   -0.4537 C   0  0  0  0  0  0  0  0  0  0  0  0
  -89.5482   31.1906   -1.0822 C   0  0  0  0  0  0  0  0  0  0  0  0
  -90.8344   30.8460   -1.5173 C   0  0  0  0  0  0  0  0  0  0  0  0
  -91.2851   29.5768   -1.3111 C   0  0  0  0  0  0  0  0  0  0  0  0
  -90.4809   28.6524   -0.6835 C   0  0  0  0  0  0  0  0  0  0  0  0
  -89.2191   28.9621   -0.2480 C   0  0  0  0  0  0  0  0  0  0  0  0
  -88.2294   27.7987    0.5312 S   0  0  0  0  0  0  0  0  0  0  0  0
  -87.6734   28.3719    1.8104 O   0  0  0  0  0  0  0  0  0  0  0  0
  -87.0730   27.3053   -0.2927 O   0  0  0  0  0  0  0  0  0  0  0  0
  -89.1366   26.3407    1.0103 C   0  0  0  0  0  0  0  0  0  0  0  0
  -88.8801   25.2177    0.0586 C   0  0  0  0  0  0  0  0  0  0  0  0
  -88.9942   26.0001    2.4563 C   0  0  0  0  0  0  0  0  0  0  0  0
  -87.6768   35.0035   -4.7620 C   0  0  0  0  0  0  0  0  0  0  0  0
  -88.8286   35.0303   -5.5268 C   0  0  0  0  0  0  0  0  0  0  0  0
  -89.7098   33.9723   -5.5505 C   0  0  0  0  0  0  0  0  0  0  0  0
  -89.3805   32.8892   -4.7722 C   0  0  0  0  0  0  0  0  0  0  0  0
  -88.2247   32.8295   -3.9874 C   0  0  0  0  0  0  0  0  0  0  0  0
  -87.3504   33.8870   -3.9678 C   0  0  0  0  0  0  0  0  0  0  0  0
  -90.8933   34.0118   -6.3524 N   0  0  0  0  0  0  0  0  0  0  0  0
  -90.7790   34.4331   -7.7065 C   0  0  0  0  0  0  0  0  0  0  0  0
  -91.9533   34.1266   -8.5931 C   0  0  0  0  0  0  0  0  0  0  0  0
  -93.2827   34.3788   -7.9652 C   0  0  0  0  0  0  0  0  0  0  0  0
  -93.2076   34.5264   -6.4586 C   0  0  0  0  0  0  0  0  0  0  0  0
  -92.1857   33.6443   -5.8255 C   0  0  0  0  0  0  0  0  0  0  0  0
  -94.3336   33.4992   -8.2900 N   0  0  0  0  0  0  0  0  0  0  0  0
  -94.2829   32.7753   -9.4911 C   0  0  0  0  0  0  0  0  0  0  0  0
  -95.6693   32.2068   -9.8068 C   0  0  0  0  0  0  0  0  0  0  0  0
  -96.2060   31.6453   -8.5824 N   0  0  0  0  0  0  0  0  0  0  0  0
  -95.5633   30.4429   -8.1574 C   0  0  0  0  0  0  0  0  0  0  0  0
  -96.4297   32.6201   -7.5641 C   0  0  0  0  0  0  0  0  0  0  0  0
  -95.6540   33.8890   -7.9115 C   0  0  0  0  0  0  0  0  0  0  0  0
  -86.9450   37.0261   -5.8442 C   0  0  0  0  0  0  0  0  0  0  0  0
  -86.8334   36.1035   -4.7848 O   0  0  0  0  0  0  0  0  0  0  0  0
 43 44  1  0  0  0
 44 24  1  0  0  0
 24 25  2  0  0  0
 25 26  1  0  0  0
 26 27  2  0  0  0
 27 28  1  0  0  0
 28 29  2  0  0  0
 29  1  1  0  0  0
  1  3  1  0  0  0
  3  4  2  0  0  0
  4  5  1  0  0  0
  5  6  2  0  0  0
  6  7  1  0  0  0
  6  8  1  0  0  0
  8 10  1  0  0  0
 10 12  1  0  0  0
 12 13  2  0  0  0
 13 14  1  0  0  0
 14 15  2  0  0  0
 15 16  1  0  0  0
 16 17  2  0  0  0
 17 18  1  0  0  0
 18 19  2  0  0  0
 18 20  2  0  0  0
 18 21  1  0  0  0
 21 22  1  0  0  0
 21 23  1  0  0  0
  8  9  2  0  0  0
 26 30  1  0  0  0
 30 31  1  0  0  0
 31 32  1  0  0  0
 32 33  1  0  0  0
 33 34  1  0  0  0
 34 35  1  0  0  0
 33 36  1  0  0  0
 36 37  1  0  0  0
 37 38  1  0  0  0
 38 39  1  0  0  0
 39 40  1  0  0  0
 39 41  1  0  0  0
 41 42  1  0  0  0
 29 24  1  0  0  0
  9  3  1  0  0  0
 35 30  1  0  0  0
 42 36  1  0  0  0
 17 12  1  0  0  0
  1  2  1  0  0  0
 10 11  1  0  0  0
M  END
> <minimizedAffinity>
-7.74013

> <CNNscore>
0.5407050848

> <CNNaffinity>
7.5301270485

> <CNN_VS>
4.0715780258

> <CNNaffinity_variance>
0.0314048454

$$$$
[H]c1nc(N([H])c2c([H])c([H])c(N3C([H])([H])C([H])([H])C([H])(N4C([H])([H])C([H])([H])N(C([H])([H])[H])C([H])([H])C4([H])[H])C([H])([H])C3([H])[H])c([H])c2OC([H])([H])[H])nc(N([H])c2c([H])c([H])c([H])c([H])c2S(=O)(=O)C([H])(C([H])([H])[H])C([H])([H])[H])c1Cl


 44 48  0  0  0  0  0  0  0  0999 V2000
  -90.1460   32.5870   -2.2239 N   0  0  0  0  0  0  0  0  0  0  0  0
  -90.8282   33.3579   -1.8898 H   0  0  0  0  0  0  0  0  0  0  0  0
  -88.7654   32.8350   -2.0029 C   0  0  0  0  0  0  0  0  0  0  0  0
  -88.0954   33.9356   -2.3535 N   0  0  0  0  0  0  0  0  0  0  0  0
  -86.7894   34.1053   -2.1125 C   0  0  0  0  0  0  0  0  0  0  0  0
  -86.0764   33.1172   -1.4751 C   0  0  0  0  0  0  0  0  0  0  0  0
  -84.3581   33.3229   -1.1495 Cl  0  0  0  0  0  0  0  0  0  0  0  0
  -86.7607   31.9444   -1.0942 C   0  0  0  0  0  0  0  0  0  0  0  0
  -88.0624   31.8703   -1.3789 N   0  0  0  0  0  0  0  0  0  0  0  0
  -86.0106   30.9526   -0.4437 N   0  0  0  0  0  0  0  0  0  0  0  0
  -85.0133   31.2504   -0.1836 H   0  0  0  0  0  0  0  0  0  0  0  0
  -86.3293   29.6384   -0.0701 C   0  0  0  0  0  0  0  0  0  0  0  0
  -87.0577   28.8361   -0.9228 C   0  0  0  0  0  0  0  0  0  0  0  0
  -87.3855   27.5223   -0.5637 C   0  0  0  0  0  0  0  0  0  0  0  0
  -86.9743   27.0440    0.6442 C   0  0  0  0  0  0  0  0  0  0  0  0
  -86.2471   27.8473    1.4932 C   0  0  0  0  0  0  0  0  0  0  0  0
  -85.9125   29.1357    1.1674 C   0  0  0  0  0  0  0  0  0  0  0  0
  -85.0051   30.1231    2.2359 S   0  0  0  0  0  0  0  0  0  0  0  0
  -85.2615   29.7065    3.6624 O   0  0  0  0  0  0  0  0  0  0  0  0
  -85.2925   31.5946    2.1277 O   0  0  0  0  0  0  0  0  0  0  0  0
  -83.2468   29.9563    1.9935 C   0  0  0  0  0  0  0  0  0  0  0  0
  -82.8132   28.5413    2.1999 C   0  0  0  0  0  0  0  0  0  0  0  0
  -82.7554   30.6004    0.7403 C   0  0  0  0  0  0  0  0  0  0  0  0
  -91.0181   30.3596   -1.9998 C   0  0  0  0  0  0  0  0  0  0  0  0
  -91.6133   29.2196   -2.5081 C   0  0  0  0  0  0  0  0  0  0  0  0
  -91.9730   29.1171   -3.8334 C   0  0  0  0  0  0  0  0  0  0  0  0
  -91.7077   30.2103   -4.6218 C   0  0  0  0  0  0  0  0  0  0  0  0
  -91.1072   31.3778   -4.1403 C   0  0  0  0  0  0  0  0  0  0  0  0
  -90.7509   31.4741   -2.8186 C   0  0  0  0  0  0  0  0  0  0  0  0
  -92.5947   27.9341   -4.3429 N   0  0  0  0  0  0  0  0  0  0  0  0
  -92.1519   26.6733   -3.8543 C   0  0  0  0  0  0  0  0  0  0  0  0
  -93.0509   25.5034   -4.1405 C   0  0  0  0  0  0  0  0  0  0  0  0
  -93.6134   25.4812   -5.5219 C   0  0  0  0  0  0  0  0  0  0  0  0
  -93.4841   26.8121   -6.2354 C   0  0  0  0  0  0  0  0  0  0  0  0
  -93.6436   27.9881   -5.3328 C   0  0  0  0  0  0  0  0  0  0  0  0
  -94.9267   24.9982   -5.6825 N   0  0  0  0  0  0  0  0  0  0  0  0
  -95.3154   23.8209   -5.0251 C   0  0  0  0  0  0  0  0  0  0  0  0
  -96.6147   23.2941   -5.6410 C   0  0  0  0  0  0  0  0  0  0  0  0
  -97.5109   24.4209   -5.8131 N   0  0  0  0  0  0  0  0  0  0  0  0
  -98.0380   24.9429   -4.5929 C   0  0  0  0  0  0  0  0  0  0  0  0
  -97.0280   25.3902   -6.7428 C   0  0  0  0  0  0  0  0  0  0  0  0
  -95.5336   25.1657   -6.9640 C   0  0  0  0  0  0  0  0  0  0  0  0
  -90.7344   29.2022    0.0925 C   0  0  0  0  0  0  0  0  0  0  0  0
  -90.6816   30.3955   -0.6554 O   0  0  0  0  0  0  0  0  0  0  0  0
 43 44  1  0  0  0
 44 24  1  0  0  0
 24 25  2  0  0  0
 25 26  1  0  0  0
 26 27  2  0  0  0
 27 28  1  0  0  0
 28 29  2  0  0  0
 29  1  1  0  0  0
  1  3  1  0  0  0
  3  4  2  0  0  0
  4  5  1  0  0  0
  5  6  2  0  0  0
  6  7  1  0  0  0
  6  8  1  0  0  0
  8 10  1  0  0  0
 10 12  1  0  0  0
 12 13  2  0  0  0
 13 14  1  0  0  0
 14 15  2  0  0  0
 15 16  1  0  0  0
 16 17  2  0  0  0
 17 18  1  0  0  0
 18 19  2  0  0  0
 18 20  2  0  0  0
 18 21  1  0  0  0
 21 22  1  0  0  0
 21 23  1  0  0  0
  8  9  2  0  0  0
 26 30  1  0  0  0
 30 31  1  0  0  0
 31 32  1  0  0  0
 32 33  1  0  0  0
 33 34  1  0  0  0
 34 35  1  0  0  0
 33 36  1  0  0  0
 36 37  1  0  0  0
 37 38  1  0  0  0
 38 39  1  0  0  0
 39 40  1  0  0  0
 39 41  1  0  0  0
 41 42  1  0  0  0
 29 24  1  0  0  0
  9  3  1  0  0  0
 35 30  1  0  0  0
 42 36  1  0  0  0
 17 12  1  0  0  0
  1  2  1  0  0  0
 10 11  1  0  0  0
M  END
> <minimizedAffinity>
-8.62490

> <CNNscore>
0.2618317008

> <CNNaffinity>
6.7785630226

> <CNN_VS>
1.7748427391

> <CNNaffinity_variance>
0.7536109686

$$$$
[H]c1nc(N([H])c2c([H])c([H])c(N3C([H])([H])C([H])([H])C([H])(N4C([H])([H])C([H])([H])N(C([H])([H])[H])C([H])([H])C4([H])[H])C([H])([H])C3([H])[H])c([H])c2OC([H])([H])[H])nc(N([H])c2c([H])c([H])c([H])c([H])c2S(=O)(=O)C([H])(C([H])([H])[H])C([H])([H])[H])c1Cl


 44 48  0  0  0  0  0  0  0  0999 V2000
  -86.3263   33.3929   -0.6696 N   0  0  0  0  0  0  0  0  0  0  0  0
  -86.0650   34.3183   -0.1731 H   0  0  0  0  0  0  0  0  0  0  0  0
  -85.7849   32.2068   -0.1071 C   0  0  0  0  0  0  0  0  0  0  0  0
  -84.5516   32.0575    0.3828 N   0  0  0  0  0  0  0  0  0  0  0  0
  -84.1045   30.9072    0.9019 C   0  0  0  0  0  0  0  0  0  0  0  0
  -84.9310   29.8090    0.9469 C   0  0  0  0  0  0  0  0  0  0  0  0
  -84.3604   28.2879    1.6261 Cl  0  0  0  0  0  0  0  0  0  0  0  0
  -86.2388   29.9403    0.4358 C   0  0  0  0  0  0  0  0  0  0  0  0
  -86.5902   31.1282   -0.0606 N   0  0  0  0  0  0  0  0  0  0  0  0
  -87.0624   28.8056    0.4953 N   0  0  0  0  0  0  0  0  0  0  0  0
  -87.0096   28.2679    1.4222 H   0  0  0  0  0  0  0  0  0  0  0  0
  -87.9454   28.2451   -0.4399 C   0  0  0  0  0  0  0  0  0  0  0  0
  -87.9354   28.6836   -1.7471 C   0  0  0  0  0  0  0  0  0  0  0  0
  -88.8119   28.1354   -2.6924 C   0  0  0  0  0  0  0  0  0  0  0  0
  -89.6790   27.1590   -2.3031 C   0  0  0  0  0  0  0  0  0  0  0  0
  -89.6865   26.7232   -0.9974 C   0  0  0  0  0  0  0  0  0  0  0  0
  -88.8403   27.2417   -0.0523 C   0  0  0  0  0  0  0  0  0  0  0  0
  -88.8613   26.6871    1.5700 S   0  0  0  0  0  0  0  0  0  0  0  0
  -87.4501   26.5473    2.0831 O   0  0  0  0  0  0  0  0  0  0  0  0
  -89.5575   25.3707    1.7745 O   0  0  0  0  0  0  0  0  0  0  0  0
  -89.6644   27.8338    2.6739 C   0  0  0  0  0  0  0  0  0  0  0  0
  -90.9056   28.3885    2.0539 C   0  0  0  0  0  0  0  0  0  0  0  0
  -89.8205   27.3116    4.0631 C   0  0  0  0  0  0  0  0  0  0  0  0
  -88.5193   33.2025   -1.6322 C   0  0  0  0  0  0  0  0  0  0  0  0
  -89.4091   33.3105   -2.6852 C   0  0  0  0  0  0  0  0  0  0  0  0
  -89.0116   33.7425   -3.9309 C   0  0  0  0  0  0  0  0  0  0  0  0
  -87.6822   34.0602   -4.0687 C   0  0  0  0  0  0  0  0  0  0  0  0
  -86.7563   33.9623   -3.0254 C   0  0  0  0  0  0  0  0  0  0  0  0
  -87.1583   33.5311   -1.7862 C   0  0  0  0  0  0  0  0  0  0  0  0
  -89.9452   33.8561   -5.0084 N   0  0  0  0  0  0  0  0  0  0  0  0
  -90.8577   32.7869   -5.2282 C   0  0  0  0  0  0  0  0  0  0  0  0
  -92.0277   33.0925   -6.1207 C   0  0  0  0  0  0  0  0  0  0  0  0
  -91.6858   33.8883   -7.3352 C   0  0  0  0  0  0  0  0  0  0  0  0
  -90.3256   34.5508   -7.2455 C   0  0  0  0  0  0  0  0  0  0  0  0
  -89.9793   35.0129   -5.8708 C   0  0  0  0  0  0  0  0  0  0  0  0
  -92.6298   34.8334   -7.7815 N   0  0  0  0  0  0  0  0  0  0  0  0
  -93.6185   35.2931   -6.8980 C   0  0  0  0  0  0  0  0  0  0  0  0
  -94.7306   35.9881   -7.6886 C   0  0  0  0  0  0  0  0  0  0  0  0
  -94.1021   36.8512   -8.6698 N   0  0  0  0  0  0  0  0  0  0  0  0
  -93.4679   38.0045   -8.1159 C   0  0  0  0  0  0  0  0  0  0  0  0
  -93.3446   36.1382   -9.6470 C   0  0  0  0  0  0  0  0  0  0  0  0
  -93.0756   34.7251   -9.1336 C   0  0  0  0  0  0  0  0  0  0  0  0
  -89.8433   31.6421   -0.3634 C   0  0  0  0  0  0  0  0  0  0  0  0
  -88.9871   32.7608   -0.4043 O   0  0  0  0  0  0  0  0  0  0  0  0
 43 44  1  0  0  0
 44 24  1  0  0  0
 24 25  2  0  0  0
 25 26  1  0  0  0
 26 27  2  0  0  0
 27 28  1  0  0  0
 28 29  2  0  0  0
 29  1  1  0  0  0
  1  3  1  0  0  0
  3  4  2  0  0  0
  4  5  1  0  0  0
  5  6  2  0  0  0
  6  7  1  0  0  0
  6  8  1  0  0  0
  8 10  1  0  0  0
 10 12  1  0  0  0
 12 13  2  0  0  0
 13 14  1  0  0  0
 14 15  2  0  0  0
 15 16  1  0  0  0
 16 17  2  0  0  0
 17 18  1  0  0  0
 18 19  2  0  0  0
 18 20  2  0  0  0
 18 21  1  0  0  0
 21 22  1  0  0  0
 21 23  1  0  0  0
  8  9  2  0  0  0
 26 30  1  0  0  0
 30 31  1  0  0  0
 31 32  1  0  0  0
 32 33  1  0  0  0
 33 34  1  0  0  0
 34 35  1  0  0  0
 33 36  1  0  0  0
 36 37  1  0  0  0
 37 38  1  0  0  0
 38 39  1  0  0  0
 39 40  1  0  0  0
 39 41  1  0  0  0
 41 42  1  0  0  0
 29 24  1  0  0  0
  9  3  1  0  0  0
 35 30  1  0  0  0
 42 36  1  0  0  0
 17 12  1  0  0  0
  1  2  1  0  0  0
 10 11  1  0  0  0
M  END
> <minimizedAffinity>
-7.78827

> <CNNscore>
0.1956047118

> <CNNaffinity>
7.1831932068

> <CNN_VS>
1.4050664902

> <CNNaffinity_variance>
0.1622948945

$$$$
[H]c1nc(N([H])c2c([H])c([H])c(N3C([H])([H])C([H])([H])C([H])(N4C([H])([H])C([H])([H])N(C([H])([H])[H])C([H])([H])C4([H])[H])C([H])([H])C3([H])[H])c([H])c2OC([H])([H])[H])nc(N([H])c2c([H])c([H])c([H])c([H])c2S(=O)(=O)C([H])(C([H])([H])[H])C([H])([H])[H])c1Cl


 44 48  0  0  0  0  0  0  0  0999 V2000
  -87.0108   32.6654   -0.7692 N   0  0  0  0  0  0  0  0  0  0  0  0
  -86.5994   33.6558   -0.6246 H   0  0  0  0  0  0  0  0  0  0  0  0
  -86.3944   31.6185   -0.0339 C   0  0  0  0  0  0  0  0  0  0  0  0
  -85.2436   31.6984    0.6387 N   0  0  0  0  0  0  0  0  0  0  0  0
  -84.7179   30.6691    1.3145 C   0  0  0  0  0  0  0  0  0  0  0  0
  -85.3706   29.4588    1.3359 C   0  0  0  0  0  0  0  0  0  0  0  0
  -84.6945   28.0940    2.2196 Cl  0  0  0  0  0  0  0  0  0  0  0  0
  -86.5883   29.3481    0.6333 C   0  0  0  0  0  0  0  0  0  0  0  0
  -87.0295   30.4310   -0.0098 N   0  0  0  0  0  0  0  0  0  0  0  0
  -87.2350   28.1033    0.6727 N   0  0  0  0  0  0  0  0  0  0  0  0
  -86.8861   27.4469    1.4463 H   0  0  0  0  0  0  0  0  0  0  0  0
  -88.2585   27.5596   -0.1181 C   0  0  0  0  0  0  0  0  0  0  0  0
  -88.3042   27.8306   -1.4693 C   0  0  0  0  0  0  0  0  0  0  0  0
  -89.3206   27.2970   -2.2721 C   0  0  0  0  0  0  0  0  0  0  0  0
  -90.2684   26.5031   -1.6994 C   0  0  0  0  0  0  0  0  0  0  0  0
  -90.2200   26.2342   -0.3502 C   0  0  0  0  0  0  0  0  0  0  0  0
  -89.2374   26.7427    0.4583 C   0  0  0  0  0  0  0  0  0  0  0  0
  -89.1905   26.3973    2.1372 S   0  0  0  0  0  0  0  0  0  0  0  0
  -87.7613   26.2224    2.5855 O   0  0  0  0  0  0  0  0  0  0  0  0
  -89.9547   25.1695    2.5471 O   0  0  0  0  0  0  0  0  0  0  0  0
  -89.8472   27.7267    3.1270 C   0  0  0  0  0  0  0  0  0  0  0  0
  -90.9114   28.4674    2.3844 C   0  0  0  0  0  0  0  0  0  0  0  0
  -90.2044   27.3137    4.5158 C   0  0  0  0  0  0  0  0  0  0  0  0
  -88.0830   33.4713   -2.7625 C   0  0  0  0  0  0  0  0  0  0  0  0
  -89.1073   33.4643   -3.6915 C   0  0  0  0  0  0  0  0  0  0  0  0
  -90.1761   32.6021   -3.5882 C   0  0  0  0  0  0  0  0  0  0  0  0
  -90.1676   31.7495   -2.5111 C   0  0  0  0  0  0  0  0  0  0  0  0
  -89.1484   31.7305   -1.5538 C   0  0  0  0  0  0  0  0  0  0  0  0
  -88.0859   32.5921   -1.6620 C   0  0  0  0  0  0  0  0  0  0  0  0
  -91.2243   32.6017   -4.5611 N   0  0  0  0  0  0  0  0  0  0  0  0
  -91.8302   31.3603   -4.9020 C   0  0  0  0  0  0  0  0  0  0  0  0
  -93.1349   31.4457   -5.6431 C   0  0  0  0  0  0  0  0  0  0  0  0
  -93.1668   32.4784   -6.7190 C   0  0  0  0  0  0  0  0  0  0  0  0
  -92.0377   33.4834   -6.6087 C   0  0  0  0  0  0  0  0  0  0  0  0
  -91.6726   33.8149   -5.2016 C   0  0  0  0  0  0  0  0  0  0  0  0
  -94.3780   33.1671   -6.9249 N   0  0  0  0  0  0  0  0  0  0  0  0
  -94.3917   34.3156   -7.7311 C   0  0  0  0  0  0  0  0  0  0  0  0
  -95.6905   35.0920   -7.4965 C   0  0  0  0  0  0  0  0  0  0  0  0
  -96.7809   34.1363   -7.4857 N   0  0  0  0  0  0  0  0  0  0  0  0
  -97.0833   33.5769   -8.7643 C   0  0  0  0  0  0  0  0  0  0  0  0
  -96.7065   33.2061   -6.4057 C   0  0  0  0  0  0  0  0  0  0  0  0
  -95.2922   33.2252   -5.8297 C   0  0  0  0  0  0  0  0  0  0  0  0
  -87.1617   35.3912   -3.8861 C   0  0  0  0  0  0  0  0  0  0  0  0
  -87.0370   34.3659   -2.9273 O   0  0  0  0  0  0  0  0  0  0  0  0
 43 44  1  0  0  0
 44 24  1  0  0  0
 24 25  2  0  0  0
 25 26  1  0  0  0
 26 27  2  0  0  0
 27 28  1  0  0  0
 28 29  2  0  0  0
 29  1  1  0  0  0
  1  3  1  0  0  0
  3  4  2  0  0  0
  4  5  1  0  0  0
  5  6  2  0  0  0
  6  7  1  0  0  0
  6  8  1  0  0  0
  8 10  1  0  0  0
 10 12  1  0  0  0
 12 13  2  0  0  0
 13 14  1  0  0  0
 14 15  2  0  0  0
 15 16  1  0  0  0
 16 17  2  0  0  0
 17 18  1  0  0  0
 18 19  2  0  0  0
 18 20  2  0  0  0
 18 21  1  0  0  0
 21 22  1  0  0  0
 21 23  1  0  0  0
  8  9  2  0  0  0
 26 30  1  0  0  0
 30 31  1  0  0  0
 31 32  1  0  0  0
 32 33  1  0  0  0
 33 34  1  0  0  0
 34 35  1  0  0  0
 33 36  1  0  0  0
 36 37  1  0  0  0
 37 38  1  0  0  0
 38 39  1  0  0  0
 39 40  1  0  0  0
 39 41  1  0  0  0
 41 42  1  0  0  0
 29 24  1  0  0  0
  9  3  1  0  0  0
 35 30  1  0  0  0
 42 36  1  0  0  0
 17 12  1  0  0  0
  1  2  1  0  0  0
 10 11  1  0  0  0
M  END
> <minimizedAffinity>
-7.58514

> <CNNscore>
0.1376571357

> <CNNaffinity>
7.2994856834

> <CNN_VS>
1.0048263073

> <CNNaffinity_variance>
0.0713621005

$$$$
[H]c1nc(N([H])c2c([H])c([H])c(N3C([H])([H])C([H])([H])C([H])(N4C([H])([H])C([H])([H])N(C([H])([H])[H])C([H])([H])C4([H])[H])C([H])([H])C3([H])[H])c([H])c2OC([H])([H])[H])nc(N([H])c2c([H])c([H])c([H])c([H])c2S(=O)(=O)C([H])(C([H])([H])[H])C([H])([H])[H])c1Cl


 44 48  0  0  0  0  0  0  0  0999 V2000
  -90.5475   32.2435   -2.6174 N   0  0  0  0  0  0  0  0  0  0  0  0
  -91.1711   33.0598   -2.9578 H   0  0  0  0  0  0  0  0  0  0  0  0
  -89.2026   32.5730   -2.3024 C   0  0  0  0  0  0  0  0  0  0  0  0
  -88.5861   33.7241   -2.5821 N   0  0  0  0  0  0  0  0  0  0  0  0
  -87.3117   33.9703   -2.2539 C   0  0  0  0  0  0  0  0  0  0  0  0
  -86.5761   33.0119   -1.5969 C   0  0  0  0  0  0  0  0  0  0  0  0
  -84.8988   33.3180   -1.1571 Cl  0  0  0  0  0  0  0  0  0  0  0  0
  -87.2040   31.7871   -1.2897 C   0  0  0  0  0  0  0  0  0  0  0  0
  -88.4778   31.6379   -1.6588 N   0  0  0  0  0  0  0  0  0  0  0  0
  -86.4322   30.8272   -0.6173 N   0  0  0  0  0  0  0  0  0  0  0  0
  -85.4550   31.1654   -0.3313 H   0  0  0  0  0  0  0  0  0  0  0  0
  -86.7073   29.5014   -0.2497 C   0  0  0  0  0  0  0  0  0  0  0  0
  -87.5480   28.7308   -1.0247 C   0  0  0  0  0  0  0  0  0  0  0  0
  -87.8341   27.4062   -0.6703 C   0  0  0  0  0  0  0  0  0  0  0  0
  -87.2693   26.8853    0.4550 C   0  0  0  0  0  0  0  0  0  0  0  0
  -86.4302   27.6570    1.2266 C   0  0  0  0  0  0  0  0  0  0  0  0
  -86.1331   28.9552    0.9034 C   0  0  0  0  0  0  0  0  0  0  0  0
  -85.0849   29.9029    1.8747 S   0  0  0  0  0  0  0  0  0  0  0  0
  -85.1222   29.4119    3.3001 O   0  0  0  0  0  0  0  0  0  0  0  0
  -85.3978   31.3730    1.8863 O   0  0  0  0  0  0  0  0  0  0  0  0
  -83.3811   29.7766    1.3656 C   0  0  0  0  0  0  0  0  0  0  0  0
  -82.7662   31.1311    1.2243 C   0  0  0  0  0  0  0  0  0  0  0  0
  -82.5922   28.7955    2.1668 C   0  0  0  0  0  0  0  0  0  0  0  0
  -92.1365   30.6945   -3.5381 C   0  0  0  0  0  0  0  0  0  0  0  0
  -92.8100   29.4867   -3.5418 C   0  0  0  0  0  0  0  0  0  0  0  0
  -92.5832   28.5254   -2.5822 C   0  0  0  0  0  0  0  0  0  0  0  0
  -91.6507   28.8333   -1.6216 C   0  0  0  0  0  0  0  0  0  0  0  0
  -90.9524   30.0444   -1.5883 C   0  0  0  0  0  0  0  0  0  0  0  0
  -91.1827   30.9985   -2.5472 C   0  0  0  0  0  0  0  0  0  0  0  0
  -93.2822   27.2779   -2.6036 N   0  0  0  0  0  0  0  0  0  0  0  0
  -94.6884   27.2942   -2.8196 C   0  0  0  0  0  0  0  0  0  0  0  0
  -95.3143   25.9769   -3.1827 C   0  0  0  0  0  0  0  0  0  0  0  0
  -94.8122   24.8164   -2.3913 C   0  0  0  0  0  0  0  0  0  0  0  0
  -93.5213   25.1155   -1.6557 C   0  0  0  0  0  0  0  0  0  0  0  0
  -92.6042   26.0189   -2.4080 C   0  0  0  0  0  0  0  0  0  0  0  0
  -94.6883   23.5804   -3.0551 N   0  0  0  0  0  0  0  0  0  0  0  0
  -93.8942   22.5698   -2.4917 C   0  0  0  0  0  0  0  0  0  0  0  0
  -93.6006   21.4995   -3.5468 C   0  0  0  0  0  0  0  0  0  0  0  0
  -94.8391   21.2166   -4.2458 N   0  0  0  0  0  0  0  0  0  0  0  0
  -95.8023   20.5049   -3.4681 C   0  0  0  0  0  0  0  0  0  0  0  0
  -95.3405   22.3323   -4.9813 C   0  0  0  0  0  0  0  0  0  0  0  0
  -94.6577   23.6041   -4.4823 C   0  0  0  0  0  0  0  0  0  0  0  0
  -93.0483   31.1780   -5.7135 C   0  0  0  0  0  0  0  0  0  0  0  0
  -92.4137   31.6176   -4.5345 O   0  0  0  0  0  0  0  0  0  0  0  0
 43 44  1  0  0  0
 44 24  1  0  0  0
 24 25  2  0  0  0
 25 26  1  0  0  0
 26 27  2  0  0  0
 27 28  1  0  0  0
 28 29  2  0  0  0
 29  1  1  0  0  0
  1  3  1  0  0  0
  3  4  2  0  0  0
  4  5  1  0  0  0
  5  6  2  0  0  0
  6  7  1  0  0  0
  6  8  1  0  0  0
  8 10  1  0  0  0
 10 12  1  0  0  0
 12 13  2  0  0  0
 13 14  1  0  0  0
 14 15  2  0  0  0
 15 16  1  0  0  0
 16 17  2  0  0  0
 17 18  1  0  0  0
 18 19  2  0  0  0
 18 20  2  0  0  0
 18 21  1  0  0  0
 21 22  1  0  0  0
 21 23  1  0  0  0
  8  9  2  0  0  0
 26 30  1  0  0  0
 30 31  1  0  0  0
 31 32  1  0  0  0
 32 33  1  0  0  0
 33 34  1  0  0  0
 34 35  1  0  0  0
 33 36  1  0  0  0
 36 37  1  0  0  0
 37 38  1  0  0  0
 38 39  1  0  0  0
 39 40  1  0  0  0
 39 41  1  0  0  0
 41 42  1  0  0  0
 29 24  1  0  0  0
  9  3  1  0  0  0
 35 30  1  0  0  0
 42 36  1  0  0  0
 17 12  1  0  0  0
  1  2  1  0  0  0
 10 11  1  0  0  0
M  END
> <minimizedAffinity>
-8.08375

> <CNNscore>
0.1325761825

> <CNNaffinity>
6.8472929001

> <CNN_VS>
0.9077879786

> <CNNaffinity_variance>
0.3986845315

$$$$
[H]c1nc(N([H])c2c([H])c([H])c(N3C([H])([H])C([H])([H])C([H])(N4C([H])([H])C([H])([H])N(C([H])([H])[H])C([H])([H])C4([H])[H])C([H])([H])C3([H])[H])c([H])c2OC([H])([H])[H])nc(N([H])c2c([H])c([H])c([H])c([H])c2S(=O)(=O)C([H])(C([H])([H])[H])C([H])([H])[H])c1Cl


 44 48  0  0  0  0  0  0  0  0999 V2000
  -87.4939   26.2213    1.8115 N   0  0  0  0  0  0  0  0  0  0  0  0
  -87.5432   25.5564    2.6640 H   0  0  0  0  0  0  0  0  0  0  0  0
  -86.3844   27.1067    1.7721 C   0  0  0  0  0  0  0  0  0  0  0  0
  -85.3587   27.1248    2.6270 N   0  0  0  0  0  0  0  0  0  0  0  0
  -84.3407   27.9891    2.5305 C   0  0  0  0  0  0  0  0  0  0  0  0
  -84.3218   28.9144    1.5134 C   0  0  0  0  0  0  0  0  0  0  0  0
  -82.9912   30.0588    1.3705 Cl  0  0  0  0  0  0  0  0  0  0  0  0
  -85.3936   28.9163    0.5968 C   0  0  0  0  0  0  0  0  0  0  0  0
  -86.3610   28.0150    0.7778 N   0  0  0  0  0  0  0  0  0  0  0  0
  -85.3492   29.8691   -0.4325 N   0  0  0  0  0  0  0  0  0  0  0  0
  -84.8044   29.5567   -1.3023 H   0  0  0  0  0  0  0  0  0  0  0  0
  -85.8899   31.1599   -0.5312 C   0  0  0  0  0  0  0  0  0  0  0  0
  -85.1682   32.2464   -0.0841 C   0  0  0  0  0  0  0  0  0  0  0  0
  -85.6948   33.5413   -0.1740 C   0  0  0  0  0  0  0  0  0  0  0  0
  -86.9350   33.7158   -0.7109 C   0  0  0  0  0  0  0  0  0  0  0  0
  -87.6530   32.6292   -1.1566 C   0  0  0  0  0  0  0  0  0  0  0  0
  -87.1623   31.3519   -1.0810 C   0  0  0  0  0  0  0  0  0  0  0  0
  -88.0691   30.0090   -1.6417 S   0  0  0  0  0  0  0  0  0  0  0  0
  -88.8534   29.4077   -0.5027 O   0  0  0  0  0  0  0  0  0  0  0  0
  -87.2492   28.9138   -2.2643 O   0  0  0  0  0  0  0  0  0  0  0  0
  -89.2769   30.4654   -2.8710 C   0  0  0  0  0  0  0  0  0  0  0  0
  -88.6198   30.7507   -4.1823 C   0  0  0  0  0  0  0  0  0  0  0  0
  -90.4460   29.5397   -2.9284 C   0  0  0  0  0  0  0  0  0  0  0  0
  -89.8360   26.4374    1.3215 C   0  0  0  0  0  0  0  0  0  0  0  0
  -90.9258   26.3358    0.4763 C   0  0  0  0  0  0  0  0  0  0  0  0
  -90.8001   25.8909   -0.8209 C   0  0  0  0  0  0  0  0  0  0  0  0
  -89.5321   25.5541   -1.2280 C   0  0  0  0  0  0  0  0  0  0  0  0
  -88.4091   25.6447   -0.3996 C   0  0  0  0  0  0  0  0  0  0  0  0
  -88.5406   26.0887    0.8922 C   0  0  0  0  0  0  0  0  0  0  0  0
  -91.9355   25.7982   -1.6855 N   0  0  0  0  0  0  0  0  0  0  0  0
  -93.2133   25.5723   -1.1020 C   0  0  0  0  0  0  0  0  0  0  0  0
  -94.3979   25.8317   -1.9898 C   0  0  0  0  0  0  0  0  0  0  0  0
  -94.2451   25.3277   -3.3854 C   0  0  0  0  0  0  0  0  0  0  0  0
  -92.8091   25.0000   -3.7426 C   0  0  0  0  0  0  0  0  0  0  0  0
  -91.8165   25.9211   -3.1186 C   0  0  0  0  0  0  0  0  0  0  0  0
  -94.8135   26.0949   -4.4207 N   0  0  0  0  0  0  0  0  0  0  0  0
  -95.0184   27.4700   -4.2296 C   0  0  0  0  0  0  0  0  0  0  0  0
  -95.9766   27.9999   -5.3001 C   0  0  0  0  0  0  0  0  0  0  0  0
  -95.5657   27.4446   -6.5750 N   0  0  0  0  0  0  0  0  0  0  0  0
  -94.3442   27.9826   -7.0828 C   0  0  0  0  0  0  0  0  0  0  0  0
  -95.6896   26.0242   -6.6390 C   0  0  0  0  0  0  0  0  0  0  0  0
  -95.8186   25.4720   -5.2210 C   0  0  0  0  0  0  0  0  0  0  0  0
  -90.7714   28.0771    2.8163 C   0  0  0  0  0  0  0  0  0  0  0  0
  -90.0340   26.8930    2.6158 O   0  0  0  0  0  0  0  0  0  0  0  0
 43 44  1  0  0  0
 44 24  1  0  0  0
 24 25  2  0  0  0
 25 26  1  0  0  0
 26 27  2  0  0  0
 27 28  1  0  0  0
 28 29  2  0  0  0
 29  1  1  0  0  0
  1  3  1  0  0  0
  3  4  2  0  0  0
  4  5  1  0  0  0
  5  6  2  0  0  0
  6  7  1  0  0  0
  6  8  1  0  0  0
  8 10  1  0  0  0
 10 12  1  0  0  0
 12 13  2  0  0  0
 13 14  1  0  0  0
 14 15  2  0  0  0
 15 16  1  0  0  0
 16 17  2  0  0  0
 17 18  1  0  0  0
 18 19  2  0  0  0
 18 20  2  0  0  0
 18 21  1  0  0  0
 21 22  1  0  0  0
 21 23  1  0  0  0
  8  9  2  0  0  0
 26 30  1  0  0  0
 30 31  1  0  0  0
 31 32  1  0  0  0
 32 33  1  0  0  0
 33 34  1  0  0  0
 34 35  1  0  0  0
 33 36  1  0  0  0
 36 37  1  0  0  0
 37 38  1  0  0  0
 38 39  1  0  0  0
 39 40  1  0  0  0
 39 41  1  0  0  0
 41 42  1  0  0  0
 29 24  1  0  0  0
  9  3  1  0  0  0
 35 30  1  0  0  0
 42 36  1  0  0  0
 17 12  1  0  0  0
  1  2  1  0  0  0
 10 11  1  0  0  0
M  END
> <minimizedAffinity>
-8.12676

> <CNNscore>
0.1056118831

> <CNNaffinity>
7.0774445534

> <CNN_VS>
0.7474622726

> <CNNaffinity_variance>
0.2107190192

$$$$
[H]c1nc(N([H])c2c([H])c([H])c(N3C([H])([H])C([H])([H])C([H])(N4C([H])([H])C([H])([H])N(C([H])([H])[H])C([H])([H])C4([H])[H])C([H])([H])C3([H])[H])c([H])c2OC([H])([H])[H])nc(N([H])c2c([H])c([H])c([H])c([H])c2S(=O)(=O)C([H])(C([H])([H])[H])C([H])([H])[H])c1Cl


 44 48  0  0  0  0  0  0  0  0999 V2000
  -86.0367   33.0251   -0.3695 N   0  0  0  0  0  0  0  0  0  0  0  0
  -85.5637   33.8587    0.1332 H   0  0  0  0  0  0  0  0  0  0  0  0
  -85.7681   31.7377    0.1660 C   0  0  0  0  0  0  0  0  0  0  0  0
  -84.7721   31.4209    0.9972 N   0  0  0  0  0  0  0  0  0  0  0  0
  -84.5766   30.1825    1.4669 C   0  0  0  0  0  0  0  0  0  0  0  0
  -85.4252   29.1666    1.0940 C   0  0  0  0  0  0  0  0  0  0  0  0
  -85.1838   27.5317    1.7019 Cl  0  0  0  0  0  0  0  0  0  0  0  0
  -86.4855   29.4748    0.2168 C   0  0  0  0  0  0  0  0  0  0  0  0
  -86.5963   30.7390   -0.1960 N   0  0  0  0  0  0  0  0  0  0  0  0
  -87.3378   28.4209   -0.1465 N   0  0  0  0  0  0  0  0  0  0  0  0
  -86.8852   27.6832   -0.7805 H   0  0  0  0  0  0  0  0  0  0  0  0
  -88.6786   28.1555    0.1702 C   0  0  0  0  0  0  0  0  0  0  0  0
  -89.0541   27.9732    1.4844 C   0  0  0  0  0  0  0  0  0  0  0  0
  -90.3884   27.7057    1.8169 C   0  0  0  0  0  0  0  0  0  0  0  0
  -91.3156   27.6273    0.8215 C   0  0  0  0  0  0  0  0  0  0  0  0
  -90.9378   27.8099   -0.4895 C   0  0  0  0  0  0  0  0  0  0  0  0
  -89.6401   28.0728   -0.8430 C   0  0  0  0  0  0  0  0  0  0  0  0
  -89.1859   28.2990   -2.4809 S   0  0  0  0  0  0  0  0  0  0  0  0
  -90.1446   27.5661   -3.3853 O   0  0  0  0  0  0  0  0  0  0  0  0
  -87.7947   27.8389   -2.8159 O   0  0  0  0  0  0  0  0  0  0  0  0
  -89.2620   30.0084   -2.9814 C   0  0  0  0  0  0  0  0  0  0  0  0
  -88.0491   30.3871   -3.7675 C   0  0  0  0  0  0  0  0  0  0  0  0
  -90.5677   30.3910   -3.5943 C   0  0  0  0  0  0  0  0  0  0  0  0
  -88.2314   33.2478   -1.3213 C   0  0  0  0  0  0  0  0  0  0  0  0
  -89.0920   33.5651   -2.3561 C   0  0  0  0  0  0  0  0  0  0  0  0
  -88.6302   34.0117   -3.5742 C   0  0  0  0  0  0  0  0  0  0  0  0
  -87.2672   34.1244   -3.7035 C   0  0  0  0  0  0  0  0  0  0  0  0
  -86.3692   33.8119   -2.6780 C   0  0  0  0  0  0  0  0  0  0  0  0
  -86.8354   33.3673   -1.4664 C   0  0  0  0  0  0  0  0  0  0  0  0
  -89.5331   34.3431   -4.6326 N   0  0  0  0  0  0  0  0  0  0  0  0
  -90.2870   35.5451   -4.5270 C   0  0  0  0  0  0  0  0  0  0  0  0
  -90.9409   36.0257   -5.7920 C   0  0  0  0  0  0  0  0  0  0  0  0
  -91.5817   34.9497   -6.6024 C   0  0  0  0  0  0  0  0  0  0  0  0
  -91.1308   33.5591   -6.2026 C   0  0  0  0  0  0  0  0  0  0  0  0
  -89.6999   33.4947   -5.7882 C   0  0  0  0  0  0  0  0  0  0  0  0
  -91.5223   35.0678   -8.0046 N   0  0  0  0  0  0  0  0  0  0  0  0
  -91.7784   33.9435   -8.8044 C   0  0  0  0  0  0  0  0  0  0  0  0
  -91.2850   34.2047  -10.2303 C   0  0  0  0  0  0  0  0  0  0  0  0
  -91.7079   35.5396  -10.6068 N   0  0  0  0  0  0  0  0  0  0  0  0
  -93.1126   35.6689  -10.8295 C   0  0  0  0  0  0  0  0  0  0  0  0
  -91.1103   36.5661   -9.8153 C   0  0  0  0  0  0  0  0  0  0  0  0
  -90.5325   35.9426   -8.5465 C   0  0  0  0  0  0  0  0  0  0  0  0
  -89.7813   31.8289   -0.1458 C   0  0  0  0  0  0  0  0  0  0  0  0
  -88.7641   32.8039   -0.1209 O   0  0  0  0  0  0  0  0  0  0  0  0
 43 44  1  0  0  0
 44 24  1  0  0  0
 24 25  2  0  0  0
 25 26  1  0  0  0
 26 27  2  0  0  0
 27 28  1  0  0  0
 28 29  2  0  0  0
 29  1  1  0  0  0
  1  3  1  0  0  0
  3  4  2  0  0  0
  4  5  1  0  0  0
  5  6  2  0  0  0
  6  7  1  0  0  0
  6  8  1  0  0  0
  8 10  1  0  0  0
 10 12  1  0  0  0
 12 13  2  0  0  0
 13 14  1  0  0  0
 14 15  2  0  0  0
 15 16  1  0  0  0
 16 17  2  0  0  0
 17 18  1  0  0  0
 18 19  2  0  0  0
 18 20  2  0  0  0
 18 21  1  0  0  0
 21 22  1  0  0  0
 21 23  1  0  0  0
  8  9  2  0  0  0
 26 30  1  0  0  0
 30 31  1  0  0  0
 31 32  1  0  0  0
 32 33  1  0  0  0
 33 34  1  0  0  0
 34 35  1  0  0  0
 33 36  1  0  0  0
 36 37  1  0  0  0
 37 38  1  0  0  0
 38 39  1  0  0  0
 39 40  1  0  0  0
 39 41  1  0  0  0
 41 42  1  0  0  0
 29 24  1  0  0  0
  9  3  1  0  0  0
 35 30  1  0  0  0
 42 36  1  0  0  0
 17 12  1  0  0  0
  1  2  1  0  0  0
 10 11  1  0  0  0
M  END
> <minimizedAffinity>
-7.65674

> <CNNscore>
0.1022564620

> <CNNaffinity>
7.0317468643

> <CNN_VS>
0.7190415263

> <CNNaffinity_variance>
0.3718753755

$$$$
[H]c1nc(N([H])c2c([H])c([H])c(N3C([H])([H])C([H])([H])C([H])(N4C([H])([H])C([H])([H])N(C([H])([H])[H])C([H])([H])C4([H])[H])C([H])([H])C3([H])[H])c([H])c2OC([H])([H])[H])nc(N([H])c2c([H])c([H])c([H])c([H])c2S(=O)(=O)C([H])(C([H])([H])[H])C([H])([H])[H])c1Cl


 44 48  0  0  0  0  0  0  0  0999 V2000
  -89.6789   32.2795   -1.2542 N   0  0  0  0  0  0  0  0  0  0  0  0
  -90.3035   33.0474   -0.8167 H   0  0  0  0  0  0  0  0  0  0  0  0
  -88.2799   32.4245   -1.0585 C   0  0  0  0  0  0  0  0  0  0  0  0
  -87.6088   33.5766   -0.9850 N   0  0  0  0  0  0  0  0  0  0  0  0
  -86.2848   33.6417   -0.7970 C   0  0  0  0  0  0  0  0  0  0  0  0
  -85.5533   32.4841   -0.6699 C   0  0  0  0  0  0  0  0  0  0  0  0
  -83.8112   32.5501   -0.4220 Cl  0  0  0  0  0  0  0  0  0  0  0  0
  -86.2384   31.2537   -0.7439 C   0  0  0  0  0  0  0  0  0  0  0  0
  -87.5588   31.2938   -0.9334 N   0  0  0  0  0  0  0  0  0  0  0  0
  -85.4691   30.0877   -0.6092 N   0  0  0  0  0  0  0  0  0  0  0  0
  -85.2332   29.6028   -1.5367 H   0  0  0  0  0  0  0  0  0  0  0  0
  -84.9505   29.4392    0.5216 C   0  0  0  0  0  0  0  0  0  0  0  0
  -83.7345   29.8277    1.0428 C   0  0  0  0  0  0  0  0  0  0  0  0
  -83.2022   29.1891    2.1702 C   0  0  0  0  0  0  0  0  0  0  0  0
  -83.9035   28.1741    2.7488 C   0  0  0  0  0  0  0  0  0  0  0  0
  -85.1173   27.7886    2.2263 C   0  0  0  0  0  0  0  0  0  0  0  0
  -85.6613   28.3958    1.1248 C   0  0  0  0  0  0  0  0  0  0  0  0
  -87.1752   27.9043    0.4870 S   0  0  0  0  0  0  0  0  0  0  0  0
  -87.0777   27.7573   -1.0107 O   0  0  0  0  0  0  0  0  0  0  0  0
  -88.3148   28.8384    0.7842 O   0  0  0  0  0  0  0  0  0  0  0  0
  -87.6879   26.3091    1.0958 C   0  0  0  0  0  0  0  0  0  0  0  0
  -88.3773   26.4396    2.4150 C   0  0  0  0  0  0  0  0  0  0  0  0
  -88.4040   25.4861    0.0776 C   0  0  0  0  0  0  0  0  0  0  0  0
  -90.6750   31.4972   -3.2957 C   0  0  0  0  0  0  0  0  0  0  0  0
  -91.3526   30.5535   -4.0457 C   0  0  0  0  0  0  0  0  0  0  0  0
  -91.7578   29.3523   -3.5078 C   0  0  0  0  0  0  0  0  0  0  0  0
  -91.4511   29.1441   -2.1850 C   0  0  0  0  0  0  0  0  0  0  0  0
  -90.7679   30.0767   -1.3983 C   0  0  0  0  0  0  0  0  0  0  0  0
  -90.3667   31.2720   -1.9399 C   0  0  0  0  0  0  0  0  0  0  0  0
  -92.4512   28.3829   -4.2983 N   0  0  0  0  0  0  0  0  0  0  0  0
  -92.2078   27.0042   -4.0448 C   0  0  0  0  0  0  0  0  0  0  0  0
  -93.1975   26.0408   -4.6374 C   0  0  0  0  0  0  0  0  0  0  0  0
  -93.6091   26.3609   -6.0350 C   0  0  0  0  0  0  0  0  0  0  0  0
  -93.2556   27.7760   -6.4469 C   0  0  0  0  0  0  0  0  0  0  0  0
  -93.3763   28.7654   -5.3380 C   0  0  0  0  0  0  0  0  0  0  0  0
  -94.9439   26.0956   -6.3977 N   0  0  0  0  0  0  0  0  0  0  0  0
  -95.5691   26.8956   -7.3663 C   0  0  0  0  0  0  0  0  0  0  0  0
  -97.0840   26.6789   -7.3112 C   0  0  0  0  0  0  0  0  0  0  0  0
  -97.3230   25.2525   -7.2084 N   0  0  0  0  0  0  0  0  0  0  0  0
  -97.0365   24.5222   -8.4017 C   0  0  0  0  0  0  0  0  0  0  0  0
  -96.8241   24.6815   -5.9991 C   0  0  0  0  0  0  0  0  0  0  0  0
  -95.8258   25.6494   -5.3673 C   0  0  0  0  0  0  0  0  0  0  0  0
  -89.1757   32.6888   -4.7551 C   0  0  0  0  0  0  0  0  0  0  0  0
  -90.2964   32.6857   -3.9006 O   0  0  0  0  0  0  0  0  0  0  0  0
 43 44  1  0  0  0
 44 24  1  0  0  0
 24 25  2  0  0  0
 25 26  1  0  0  0
 26 27  2  0  0  0
 27 28  1  0  0  0
 28 29  2  0  0  0
 29  1  1  0  0  0
  1  3  1  0  0  0
  3  4  2  0  0  0
  4  5  1  0  0  0
  5  6  2  0  0  0
  6  7  1  0  0  0
  6  8  1  0  0  0
  8 10  1  0  0  0
 10 12  1  0  0  0
 12 13  2  0  0  0
 13 14  1  0  0  0
 14 15  2  0  0  0
 15 16  1  0  0  0
 16 17  2  0  0  0
 17 18  1  0  0  0
 18 19  2  0  0  0
 18 20  2  0  0  0
 18 21  1  0  0  0
 21 22  1  0  0  0
 21 23  1  0  0  0
  8  9  2  0  0  0
 26 30  1  0  0  0
 30 31  1  0  0  0
 31 32  1  0  0  0
 32 33  1  0  0  0
 33 34  1  0  0  0
 34 35  1  0  0  0
 33 36  1  0  0  0
 36 37  1  0  0  0
 37 38  1  0  0  0
 38 39  1  0  0  0
 39 40  1  0  0  0
 39 41  1  0  0  0
 41 42  1  0  0  0
 29 24  1  0  0  0
  9  3  1  0  0  0
 35 30  1  0  0  0
 42 36  1  0  0  0
 17 12  1  0  0  0
  1  2  1  0  0  0
 10 11  1  0  0  0
M  END
> <minimizedAffinity>
-8.39189

> <CNNscore>
0.0779432282

> <CNNaffinity>
6.4263238907

> <CNN_VS>
0.5008884072

> <CNNaffinity_variance>
0.6937670708

$$$$
[H]c1nc(N([H])c2c([H])c([H])c(N3C([H])([H])C([H])([H])C([H])(N4C([H])([H])C([H])([H])N(C([H])([H])[H])C([H])([H])C4([H])[H])C([H])([H])C3([H])[H])c([H])c2OC([H])([H])[H])nc(N([H])c2c([H])c([H])c([H])c([H])c2S(=O)(=O)C([H])(C([H])([H])[H])C([H])([H])[H])c1Cl


 44 48  0  0  0  0  0  0  0  0999 V2000
  -91.0056   31.0852   -2.5152 N   0  0  0  0  0  0  0  0  0  0  0  0
  -91.7377   31.7645   -2.9321 H   0  0  0  0  0  0  0  0  0  0  0  0
  -89.7378   31.6449   -2.2056 C   0  0  0  0  0  0  0  0  0  0  0  0
  -89.3578   32.9064   -2.4236 N   0  0  0  0  0  0  0  0  0  0  0  0
  -88.1430   33.3702   -2.1048 C   0  0  0  0  0  0  0  0  0  0  0  0
  -87.2205   32.5321   -1.5238 C   0  0  0  0  0  0  0  0  0  0  0  0
  -85.6180   33.1246   -1.0975 Cl  0  0  0  0  0  0  0  0  0  0  0  0
  -87.5969   31.1946   -1.2828 C   0  0  0  0  0  0  0  0  0  0  0  0
  -88.8305   30.8282   -1.6364 N   0  0  0  0  0  0  0  0  0  0  0  0
  -86.6380   30.3608   -0.6874 N   0  0  0  0  0  0  0  0  0  0  0  0
  -85.6508   30.7790   -0.6472 H   0  0  0  0  0  0  0  0  0  0  0  0
  -86.7362   29.0757   -0.1329 C   0  0  0  0  0  0  0  0  0  0  0  0
  -87.4837   28.1060   -0.7670 C   0  0  0  0  0  0  0  0  0  0  0  0
  -87.5931   26.8188   -0.2253 C   0  0  0  0  0  0  0  0  0  0  0  0
  -86.9491   26.5347    0.9415 C   0  0  0  0  0  0  0  0  0  0  0  0
  -86.2034   27.5049    1.5720 C   0  0  0  0  0  0  0  0  0  0  0  0
  -86.0792   28.7717    1.0646 C   0  0  0  0  0  0  0  0  0  0  0  0
  -85.1455   29.9687    1.8618 S   0  0  0  0  0  0  0  0  0  0  0  0
  -85.0424   29.6449    3.3311 O   0  0  0  0  0  0  0  0  0  0  0  0
  -85.6790   31.3683    1.7356 O   0  0  0  0  0  0  0  0  0  0  0  0
  -83.4673   30.0367    1.2641 C   0  0  0  0  0  0  0  0  0  0  0  0
  -82.9893   31.4499    1.1801 C   0  0  0  0  0  0  0  0  0  0  0  0
  -82.5487   29.0902    1.9620 C   0  0  0  0  0  0  0  0  0  0  0  0
  -91.7441   29.0299   -3.5165 C   0  0  0  0  0  0  0  0  0  0  0  0
  -92.1821   27.7201   -3.4456 C   0  0  0  0  0  0  0  0  0  0  0  0
  -92.3444   27.0725   -2.2412 C   0  0  0  0  0  0  0  0  0  0  0  0
  -92.0468   27.8000   -1.1146 C   0  0  0  0  0  0  0  0  0  0  0  0
  -91.6022   29.1254   -1.1506 C   0  0  0  0  0  0  0  0  0  0  0  0
  -91.4425   29.7656   -2.3538 C   0  0  0  0  0  0  0  0  0  0  0  0
  -92.7911   25.7150   -2.1844 N   0  0  0  0  0  0  0  0  0  0  0  0
  -92.1222   24.7487   -2.9862 C   0  0  0  0  0  0  0  0  0  0  0  0
  -92.3815   23.3100   -2.6374 C   0  0  0  0  0  0  0  0  0  0  0  0
  -93.8076   22.9966   -2.3323 C   0  0  0  0  0  0  0  0  0  0  0  0
  -94.6409   24.2334   -2.0620 C   0  0  0  0  0  0  0  0  0  0  0  0
  -93.8945   25.3083   -1.3475 C   0  0  0  0  0  0  0  0  0  0  0  0
  -94.0643   22.0404   -1.3306 N   0  0  0  0  0  0  0  0  0  0  0  0
  -95.3783   21.8513   -0.8759 C   0  0  0  0  0  0  0  0  0  0  0  0
  -95.3582   21.0741    0.4433 C   0  0  0  0  0  0  0  0  0  0  0  0
  -94.4209   19.9776    0.2961 N   0  0  0  0  0  0  0  0  0  0  0  0
  -94.8693   18.9349   -0.5705 C   0  0  0  0  0  0  0  0  0  0  0  0
  -93.0741   20.4079    0.1004 C   0  0  0  0  0  0  0  0  0  0  0  0
  -93.0769   21.8784   -0.3120 C   0  0  0  0  0  0  0  0  0  0  0  0
  -92.7548   29.8596   -5.5383 C   0  0  0  0  0  0  0  0  0  0  0  0
  -91.6028   29.6211   -4.7624 O   0  0  0  0  0  0  0  0  0  0  0  0
 43 44  1  0  0  0
 44 24  1  0  0  0
 24 25  2  0  0  0
 25 26  1  0  0  0
 26 27  2  0  0  0
 27 28  1  0  0  0
 28 29  2  0  0  0
 29  1  1  0  0  0
  1  3  1  0  0  0
  3  4  2  0  0  0
  4  5  1  0  0  0
  5  6  2  0  0  0
  6  7  1  0  0  0
  6  8  1  0  0  0
  8 10  1  0  0  0
 10 12  1  0  0  0
 12 13  2  0  0  0
 13 14  1  0  0  0
 14 15  2  0  0  0
 15 16  1  0  0  0
 16 17  2  0  0  0
 17 18  1  0  0  0
 18 19  2  0  0  0
 18 20  2  0  0  0
 18 21  1  0  0  0
 21 22  1  0  0  0
 21 23  1  0  0  0
  8  9  2  0  0  0
 26 30  1  0  0  0
 30 31  1  0  0  0
 31 32  1  0  0  0
 32 33  1  0  0  0
 33 34  1  0  0  0
 34 35  1  0  0  0
 33 36  1  0  0  0
 36 37  1  0  0  0
 37 38  1  0  0  0
 38 39  1  0  0  0
 39 40  1  0  0  0
 39 41  1  0  0  0
 41 42  1  0  0  0
 29 24  1  0  0  0
  9  3  1  0  0  0
 35 30  1  0  0  0
 42 36  1  0  0  0
 17 12  1  0  0  0
  1  2  1  0  0  0
 10 11  1  0  0  0
M  END
> <minimizedAffinity>
-8.20297

> <CNNscore>
0.0720951483

> <CNNaffinity>
6.4594254494

> <CNN_VS>
0.4656932354

> <CNNaffinity_variance>
0.9118416905

$$$$
[H]c1nc(N2C([H])([H])C([H])([H])N(C(=O)c3c([H])c([H])c([H])c(-c4c([H])c([H])c([H])c(OC(F)(F)F)c4[H])c3[H])[C@]([H])(C([H])([H])[H])C2([H])[H])nc([H])c1Cl


 33 36  0  0  0  0  0  0  0  0999 V2000
  -88.9642   30.7439   -0.9978 C   0  0  0  0  0  0  0  0  0  0  0  0
  -89.4658   31.9539   -1.3924 C   0  0  0  0  0  0  0  0  0  0  0  0
  -88.6206   33.0769   -1.3471 C   0  0  0  0  0  0  0  0  0  0  0  0
  -87.3216   32.9757   -0.9186 C   0  0  0  0  0  0  0  0  0  0  0  0
  -86.7966   31.7704   -0.5167 C   0  0  0  0  0  0  0  0  0  0  0  0
  -87.6164   30.6787   -0.5605 C   0  0  0  0  0  0  0  0  0  0  0  0
  -87.5011   27.0530   -1.7786 C   0  0  0  0  0  0  0  0  0  0  0  0
  -88.2735   27.4987   -0.5422 C   0  0  0  0  0  0  0  0  0  0  0  0
  -88.6315   26.2370    0.2795 C   0  0  0  0  0  0  0  0  0  0  0  0
  -89.7923   26.5317    1.0576 N   0  0  0  0  0  0  0  0  0  0  0  0
  -91.0486   26.7602    0.3218 C   0  0  0  0  0  0  0  0  0  0  0  0
  -90.6500   27.2707   -1.0650 C   0  0  0  0  0  0  0  0  0  0  0  0
  -89.4712   28.1864   -0.8662 N   0  0  0  0  0  0  0  0  0  0  0  0
  -89.7447   29.5254   -1.0414 C   0  0  0  0  0  0  0  0  0  0  0  0
  -91.0182   29.7572   -1.3115 O   0  0  0  0  0  0  0  0  0  0  0  0
  -89.7796   26.6085    2.4502 C   0  0  0  0  0  0  0  0  0  0  0  0
  -90.0510   27.7601    3.1259 N   0  0  0  0  0  0  0  0  0  0  0  0
  -90.0418   27.8468    4.4654 C   0  0  0  0  0  0  0  0  0  0  0  0
  -89.7479   26.7374    5.2213 C   0  0  0  0  0  0  0  0  0  0  0  0
  -89.7299   26.8285    6.9800 Cl  0  0  0  0  0  0  0  0  0  0  0  0
  -89.4694   25.5598    4.5649 C   0  0  0  0  0  0  0  0  0  0  0  0
  -89.4927   25.5301    3.2330 N   0  0  0  0  0  0  0  0  0  0  0  0
  -85.4101   31.6360   -0.0542 C   0  0  0  0  0  0  0  0  0  0  0  0
  -84.4696   32.6296   -0.2348 C   0  0  0  0  0  0  0  0  0  0  0  0
  -83.1593   32.4730    0.2158 C   0  0  0  0  0  0  0  0  0  0  0  0
  -82.7617   31.3182    0.8572 C   0  0  0  0  0  0  0  0  0  0  0  0
  -83.7058   30.3283    1.0350 C   0  0  0  0  0  0  0  0  0  0  0  0
  -85.0097   30.4853    0.5860 C   0  0  0  0  0  0  0  0  0  0  0  0
  -83.3113   29.1574    1.6828 O   0  0  0  0  0  0  0  0  0  0  0  0
  -84.1929   28.4077    2.4826 C   0  0  0  0  0  0  0  0  0  0  0  0
  -83.4554   27.4739    3.1701 F   0  0  0  0  0  0  0  0  0  0  0  0
  -85.1569   27.7758    1.7563 F   0  0  0  0  0  0  0  0  0  0  0  0
  -84.7827   29.2308    3.4290 F   0  0  0  0  0  0  0  0  0  0  0  0
  7  8  1  0  0  0
  8  9  1  0  0  0
  9 10  1  0  0  0
 10 11  1  0  0  0
 11 12  1  0  0  0
 12 13  1  0  0  0
 13 14  1  0  0  0
 14 15  2  0  0  0
 14  1  1  0  0  0
  1  2  2  0  0  0
  2  3  1  0  0  0
  3  4  2  0  0  0
  4  5  1  0  0  0
  5  6  2  0  0  0
  5 23  1  0  0  0
 23 24  2  0  0  0
 24 25  1  0  0  0
 25 26  2  0  0  0
 26 27  1  0  0  0
 27 29  1  0  0  0
 29 30  1  0  0  0
 30 31  1  0  0  0
 30 32  1  0  0  0
 30 33  1  0  0  0
 27 28  2  0  0  0
 10 16  1  0  0  0
 16 17  2  0  0  0
 17 18  1  0  0  0
 18 19  2  0  0  0
 19 20  1  0  0  0
 19 21  1  0  0  0
 21 22  2  0  0  0
 13  8  1  0  0  0
  6  1  1  0  0  0
 28 23  1  0  0  0
 22 16  1  0  0  0
M  END
> <minimizedAffinity>
-10.81604

> <CNNscore>
0.6261882782

> <CNNaffinity>
7.2467589378

> <CNN_VS>
4.5378355980

> <CNNaffinity_variance>
0.2168556899

$$$$
[H]c1nc(N2C([H])([H])C([H])([H])N(C(=O)c3c([H])c([H])c([H])c(-c4c([H])c([H])c([H])c(OC(F)(F)F)c4[H])c3[H])[C@]([H])(C([H])([H])[H])C2([H])[H])nc([H])c1Cl


 33 36  0  0  0  0  0  0  0  0999 V2000
  -91.0082   29.3499   -0.7272 C   0  0  0  0  0  0  0  0  0  0  0  0
  -92.1328   29.2283   -1.4965 C   0  0  0  0  0  0  0  0  0  0  0  0
  -92.3306   30.1452   -2.5442 C   0  0  0  0  0  0  0  0  0  0  0  0
  -91.4254   31.1437   -2.7993 C   0  0  0  0  0  0  0  0  0  0  0  0
  -90.2890   31.2853   -2.0388 C   0  0  0  0  0  0  0  0  0  0  0  0
  -90.0954   30.3951   -1.0210 C   0  0  0  0  0  0  0  0  0  0  0  0
  -89.8902   25.4879   -1.1835 C   0  0  0  0  0  0  0  0  0  0  0  0
  -89.1278   26.5916   -0.4593 C   0  0  0  0  0  0  0  0  0  0  0  0
  -87.9478   25.9394    0.3006 C   0  0  0  0  0  0  0  0  0  0  0  0
  -87.6076   26.7869    1.3987 N   0  0  0  0  0  0  0  0  0  0  0  0
  -88.6050   26.9164    2.4758 C   0  0  0  0  0  0  0  0  0  0  0  0
  -89.9696   26.6536    1.8343 C   0  0  0  0  0  0  0  0  0  0  0  0
  -89.9369   27.2930    0.4713 N   0  0  0  0  0  0  0  0  0  0  0  0
  -90.6992   28.4344    0.3509 C   0  0  0  0  0  0  0  0  0  0  0  0
  -91.2873   28.7796    1.4837 O   0  0  0  0  0  0  0  0  0  0  0  0
  -86.3985   27.4768    1.4856 C   0  0  0  0  0  0  0  0  0  0  0  0
  -86.1487   28.6151    0.7797 N   0  0  0  0  0  0  0  0  0  0  0  0
  -84.9895   29.2878    0.8546 C   0  0  0  0  0  0  0  0  0  0  0  0
  -83.9851   28.8321    1.6743 C   0  0  0  0  0  0  0  0  0  0  0  0
  -82.4563   29.6988    1.7879 Cl  0  0  0  0  0  0  0  0  0  0  0  0
  -84.2098   27.6838    2.3996 C   0  0  0  0  0  0  0  0  0  0  0  0
  -85.3796   27.0556    2.2872 N   0  0  0  0  0  0  0  0  0  0  0  0
  -89.3053   32.3449   -2.2915 C   0  0  0  0  0  0  0  0  0  0  0  0
  -89.6381   33.5316   -2.9124 C   0  0  0  0  0  0  0  0  0  0  0  0
  -88.6812   34.5203   -3.1390 C   0  0  0  0  0  0  0  0  0  0  0  0
  -87.3700   34.3428   -2.7488 C   0  0  0  0  0  0  0  0  0  0  0  0
  -87.0428   33.1549   -2.1287 C   0  0  0  0  0  0  0  0  0  0  0  0
  -87.9961   32.1714   -1.9038 C   0  0  0  0  0  0  0  0  0  0  0  0
  -85.7186   32.9678   -1.7313 O   0  0  0  0  0  0  0  0  0  0  0  0
  -85.2852   33.2240   -0.4176 C   0  0  0  0  0  0  0  0  0  0  0  0
  -83.9226   33.4010   -0.4452 F   0  0  0  0  0  0  0  0  0  0  0  0
  -85.5920   32.2157    0.4456 F   0  0  0  0  0  0  0  0  0  0  0  0
  -85.8363   34.4125    0.0348 F   0  0  0  0  0  0  0  0  0  0  0  0
  7  8  1  0  0  0
  8  9  1  0  0  0
  9 10  1  0  0  0
 10 11  1  0  0  0
 11 12  1  0  0  0
 12 13  1  0  0  0
 13 14  1  0  0  0
 14 15  2  0  0  0
 14  1  1  0  0  0
  1  2  2  0  0  0
  2  3  1  0  0  0
  3  4  2  0  0  0
  4  5  1  0  0  0
  5  6  2  0  0  0
  5 23  1  0  0  0
 23 24  2  0  0  0
 24 25  1  0  0  0
 25 26  2  0  0  0
 26 27  1  0  0  0
 27 29  1  0  0  0
 29 30  1  0  0  0
 30 31  1  0  0  0
 30 32  1  0  0  0
 30 33  1  0  0  0
 27 28  2  0  0  0
 10 16  1  0  0  0
 16 17  2  0  0  0
 17 18  1  0  0  0
 18 19  2  0  0  0
 19 20  1  0  0  0
 19 21  1  0  0  0
 21 22  2  0  0  0
 13  8  1  0  0  0
  6  1  1  0  0  0
 28 23  1  0  0  0
 22 16  1  0  0  0
M  END
> <minimizedAffinity>
-9.31357

> <CNNscore>
0.2202753723

> <CNNaffinity>
6.7439308167

> <CNN_VS>
1.4855219126

> <CNNaffinity_variance>
0.1504769325

$$$$
[H]c1nc(N2C([H])([H])C([H])([H])N(C(=O)c3c([H])c([H])c([H])c(-c4c([H])c([H])c([H])c(OC(F)(F)F)c4[H])c3[H])[C@]([H])(C([H])([H])[H])C2([H])[H])nc([H])c1Cl


 33 36  0  0  0  0  0  0  0  0999 V2000
  -88.6888   30.8117   -1.1436 C   0  0  0  0  0  0  0  0  0  0  0  0
  -87.5602   30.8181   -0.3705 C   0  0  0  0  0  0  0  0  0  0  0  0
  -86.7568   31.9723   -0.3666 C   0  0  0  0  0  0  0  0  0  0  0  0
  -87.0850   33.0729   -1.1166 C   0  0  0  0  0  0  0  0  0  0  0  0
  -88.2137   33.0885   -1.9013 C   0  0  0  0  0  0  0  0  0  0  0  0
  -88.9951   31.9682   -1.9057 C   0  0  0  0  0  0  0  0  0  0  0  0
  -87.6435   26.9928   -1.9780 C   0  0  0  0  0  0  0  0  0  0  0  0
  -88.3468   27.5064   -0.7269 C   0  0  0  0  0  0  0  0  0  0  0  0
  -88.8282   26.2822    0.0886 C   0  0  0  0  0  0  0  0  0  0  0  0
  -89.9400   26.6924    0.8858 N   0  0  0  0  0  0  0  0  0  0  0  0
  -91.1739   27.0627    0.1700 C   0  0  0  0  0  0  0  0  0  0  0  0
  -90.7407   27.5416   -1.2177 C   0  0  0  0  0  0  0  0  0  0  0  0
  -89.4674   28.3227   -1.0275 N   0  0  0  0  0  0  0  0  0  0  0  0
  -89.5969   29.6851   -1.1870 C   0  0  0  0  0  0  0  0  0  0  0  0
  -90.8414   30.0558   -1.4368 O   0  0  0  0  0  0  0  0  0  0  0  0
  -89.9006   26.7529    2.2786 C   0  0  0  0  0  0  0  0  0  0  0  0
  -90.2002   27.8853    2.9745 N   0  0  0  0  0  0  0  0  0  0  0  0
  -90.1658   27.9562    4.3146 C   0  0  0  0  0  0  0  0  0  0  0  0
  -89.8151   26.8496    5.0500 C   0  0  0  0  0  0  0  0  0  0  0  0
  -89.7634   26.9201    6.8089 Cl  0  0  0  0  0  0  0  0  0  0  0  0
  -89.5072   25.6911    4.3730 C   0  0  0  0  0  0  0  0  0  0  0  0
  -89.5575   25.6766    3.0415 N   0  0  0  0  0  0  0  0  0  0  0  0
  -88.5867   34.2534   -2.7126 C   0  0  0  0  0  0  0  0  0  0  0  0
  -89.8348   34.3876   -3.2859 C   0  0  0  0  0  0  0  0  0  0  0  0
  -90.1601   35.5065   -4.0520 C   0  0  0  0  0  0  0  0  0  0  0  0
  -89.2431   36.5157   -4.2608 C   0  0  0  0  0  0  0  0  0  0  0  0
  -87.9972   36.3765   -3.6854 C   0  0  0  0  0  0  0  0  0  0  0  0
  -87.6745   35.2623   -2.9232 C   0  0  0  0  0  0  0  0  0  0  0  0
  -87.0643   37.3930   -3.8922 O   0  0  0  0  0  0  0  0  0  0  0  0
  -87.2491   38.6952   -3.3930 C   0  0  0  0  0  0  0  0  0  0  0  0
  -86.0323   39.3338   -3.4071 F   0  0  0  0  0  0  0  0  0  0  0  0
  -87.7515   38.7089   -2.1268 F   0  0  0  0  0  0  0  0  0  0  0  0
  -88.0867   39.4067   -4.2375 F   0  0  0  0  0  0  0  0  0  0  0  0
  7  8  1  0  0  0
  8  9  1  0  0  0
  9 10  1  0  0  0
 10 11  1  0  0  0
 11 12  1  0  0  0
 12 13  1  0  0  0
 13 14  1  0  0  0
 14 15  2  0  0  0
 14  1  1  0  0  0
  1  2  2  0  0  0
  2  3  1  0  0  0
  3  4  2  0  0  0
  4  5  1  0  0  0
  5  6  2  0  0  0
  5 23  1  0  0  0
 23 24  2  0  0  0
 24 25  1  0  0  0
 25 26  2  0  0  0
 26 27  1  0  0  0
 27 29  1  0  0  0
 29 30  1  0  0  0
 30 31  1  0  0  0
 30 32  1  0  0  0
 30 33  1  0  0  0
 27 28  2  0  0  0
 10 16  1  0  0  0
 16 17  2  0  0  0
 17 18  1  0  0  0
 18 19  2  0  0  0
 19 20  1  0  0  0
 19 21  1  0  0  0
 21 22  2  0  0  0
 13  8  1  0  0  0
  6  1  1  0  0  0
 28 23  1  0  0  0
 22 16  1  0  0  0
M  END
> <minimizedAffinity>
-8.26671

> <CNNscore>
0.1501830965

> <CNNaffinity>
6.1446290016

> <CNN_VS>
0.9228194356

> <CNNaffinity_variance>
0.0879329965

$$$$
[H]c1nc(N2C([H])([H])C([H])([H])N(C(=O)c3c([H])c([H])c([H])c(-c4c([H])c([H])c([H])c(OC(F)(F)F)c4[H])c3[H])[C@]([H])(C([H])([H])[H])C2([H])[H])nc([H])c1Cl


 33 36  0  0  0  0  0  0  0  0999 V2000
  -88.7417   31.7208   -1.6828 C   0  0  0  0  0  0  0  0  0  0  0  0
  -87.6838   31.6611   -0.8175 C   0  0  0  0  0  0  0  0  0  0  0  0
  -86.8221   32.7693   -0.7347 C   0  0  0  0  0  0  0  0  0  0  0  0
  -87.0254   33.8901   -1.4988 C   0  0  0  0  0  0  0  0  0  0  0  0
  -88.0811   33.9718   -2.3756 C   0  0  0  0  0  0  0  0  0  0  0  0
  -88.9191   32.8962   -2.4566 C   0  0  0  0  0  0  0  0  0  0  0  0
  -87.8876   27.9472   -2.8676 C   0  0  0  0  0  0  0  0  0  0  0  0
  -88.5535   28.3791   -1.5661 C   0  0  0  0  0  0  0  0  0  0  0  0
  -89.0847   27.1107   -0.8560 C   0  0  0  0  0  0  0  0  0  0  0  0
  -90.1679   27.4993   -0.0102 N   0  0  0  0  0  0  0  0  0  0  0  0
  -91.3896   27.9891   -0.6730 C   0  0  0  0  0  0  0  0  0  0  0  0
  -90.9477   28.5695   -2.0185 C   0  0  0  0  0  0  0  0  0  0  0  0
  -89.6368   29.2703   -1.7775 N   0  0  0  0  0  0  0  0  0  0  0  0
  -89.7028   30.6460   -1.8134 C   0  0  0  0  0  0  0  0  0  0  0  0
  -90.9306   31.0951   -2.0120 O   0  0  0  0  0  0  0  0  0  0  0  0
  -90.1122   27.4331    1.3819 C   0  0  0  0  0  0  0  0  0  0  0  0
  -89.2561   26.6065    2.0453 N   0  0  0  0  0  0  0  0  0  0  0  0
  -89.1931   26.5336    3.3843 C   0  0  0  0  0  0  0  0  0  0  0  0
  -90.0194   27.3184    4.1523 C   0  0  0  0  0  0  0  0  0  0  0  0
  -89.9538   27.2389    5.9104 Cl  0  0  0  0  0  0  0  0  0  0  0  0
  -90.8950   28.1634    3.5085 C   0  0  0  0  0  0  0  0  0  0  0  0
  -90.9156   28.1955    2.1765 N   0  0  0  0  0  0  0  0  0  0  0  0
  -88.3202   35.1596   -3.2039 C   0  0  0  0  0  0  0  0  0  0  0  0
  -87.3034   36.0068   -3.5948 C   0  0  0  0  0  0  0  0  0  0  0  0
  -87.5615   37.1283   -4.3823 C   0  0  0  0  0  0  0  0  0  0  0  0
  -88.8433   37.4262   -4.7960 C   0  0  0  0  0  0  0  0  0  0  0  0
  -89.8559   36.5762   -4.4025 C   0  0  0  0  0  0  0  0  0  0  0  0
  -89.5978   35.4603   -3.6185 C   0  0  0  0  0  0  0  0  0  0  0  0
  -91.1550   36.8709   -4.8168 O   0  0  0  0  0  0  0  0  0  0  0  0
  -92.0082   37.7083   -4.0753 C   0  0  0  0  0  0  0  0  0  0  0  0
  -92.9586   38.2131   -4.9300 F   0  0  0  0  0  0  0  0  0  0  0  0
  -91.3474   38.7382   -3.4763 F   0  0  0  0  0  0  0  0  0  0  0  0
  -92.6815   36.9640   -3.1194 F   0  0  0  0  0  0  0  0  0  0  0  0
  7  8  1  0  0  0
  8  9  1  0  0  0
  9 10  1  0  0  0
 10 11  1  0  0  0
 11 12  1  0  0  0
 12 13  1  0  0  0
 13 14  1  0  0  0
 14 15  2  0  0  0
 14  1  1  0  0  0
  1  2  2  0  0  0
  2  3  1  0  0  0
  3  4  2  0  0  0
  4  5  1  0  0  0
  5  6  2  0  0  0
  5 23  1  0  0  0
 23 24  2  0  0  0
 24 25  1  0  0  0
 25 26  2  0  0  0
 26 27  1  0  0  0
 27 29  1  0  0  0
 29 30  1  0  0  0
 30 31  1  0  0  0
 30 32  1  0  0  0
 30 33  1  0  0  0
 27 28  2  0  0  0
 10 16  1  0  0  0
 16 17  2  0  0  0
 17 18  1  0  0  0
 18 19  2  0  0  0
 19 20  1  0  0  0
 19 21  1  0  0  0
 21 22  2  0  0  0
 13  8  1  0  0  0
  6  1  1  0  0  0
 28 23  1  0  0  0
 22 16  1  0  0  0
M  END
> <minimizedAffinity>
-7.76148

> <CNNscore>
0.1432687491

> <CNNaffinity>
6.1438307762

> <CNN_VS>
0.8802189231

> <CNNaffinity_variance>
0.0525261573

$$$$
[H]c1nc(N2C([H])([H])C([H])([H])N(C(=O)c3c([H])c([H])c([H])c(-c4c([H])c([H])c([H])c(OC(F)(F)F)c4[H])c3[H])[C@]([H])(C([H])([H])[H])C2([H])[H])nc([H])c1Cl


 33 36  0  0  0  0  0  0  0  0999 V2000
  -91.1878   28.3027   -0.9634 C   0  0  0  0  0  0  0  0  0  0  0  0
  -92.0079   27.5159   -1.7248 C   0  0  0  0  0  0  0  0  0  0  0  0
  -92.4113   27.9908   -2.9855 C   0  0  0  0  0  0  0  0  0  0  0  0
  -92.0000   29.2131   -3.4528 C   0  0  0  0  0  0  0  0  0  0  0  0
  -91.1766   30.0207   -2.7046 C   0  0  0  0  0  0  0  0  0  0  0  0
  -90.7838   29.5604   -1.4801 C   0  0  0  0  0  0  0  0  0  0  0  0
  -89.3163   24.7997   -0.1890 C   0  0  0  0  0  0  0  0  0  0  0  0
  -88.7867   26.2065    0.0645 C   0  0  0  0  0  0  0  0  0  0  0  0
  -87.4930   26.0869    0.9056 C   0  0  0  0  0  0  0  0  0  0  0  0
  -87.3220   27.3068    1.6283 N   0  0  0  0  0  0  0  0  0  0  0  0
  -88.3162   27.6082    2.6736 C   0  0  0  0  0  0  0  0  0  0  0  0
  -89.6048   26.8914    2.2633 C   0  0  0  0  0  0  0  0  0  0  0  0
  -89.7131   27.0195    0.7668 N   0  0  0  0  0  0  0  0  0  0  0  0
  -90.6913   27.8866    0.3313 C   0  0  0  0  0  0  0  0  0  0  0  0
  -91.3277   28.4823    1.3255 O   0  0  0  0  0  0  0  0  0  0  0  0
  -86.2766   28.1980    1.3869 C   0  0  0  0  0  0  0  0  0  0  0  0
  -85.0920   28.1412    2.0576 N   0  0  0  0  0  0  0  0  0  0  0  0
  -84.0786   28.9929    1.8345 C   0  0  0  0  0  0  0  0  0  0  0  0
  -84.2110   29.9821    0.8897 C   0  0  0  0  0  0  0  0  0  0  0  0
  -82.8945   31.1103    0.5808 Cl  0  0  0  0  0  0  0  0  0  0  0  0
  -85.3977   30.0632    0.1966 C   0  0  0  0  0  0  0  0  0  0  0  0
  -86.3709   29.1915    0.4584 N   0  0  0  0  0  0  0  0  0  0  0  0
  -90.7227   31.3323   -3.1821 C   0  0  0  0  0  0  0  0  0  0  0  0
  -91.2123   31.9105   -4.3356 C   0  0  0  0  0  0  0  0  0  0  0  0
  -90.7615   33.1586   -4.7642 C   0  0  0  0  0  0  0  0  0  0  0  0
  -89.8108   33.8552   -4.0475 C   0  0  0  0  0  0  0  0  0  0  0  0
  -89.3249   33.2727   -2.8954 C   0  0  0  0  0  0  0  0  0  0  0  0
  -89.7742   32.0303   -2.4698 C   0  0  0  0  0  0  0  0  0  0  0  0
  -88.3630   33.9711   -2.1651 O   0  0  0  0  0  0  0  0  0  0  0  0
  -87.0044   33.9821   -2.5299 C   0  0  0  0  0  0  0  0  0  0  0  0
  -86.7586   32.8651   -3.2919 F   0  0  0  0  0  0  0  0  0  0  0  0
  -86.1688   33.9873   -1.4539 F   0  0  0  0  0  0  0  0  0  0  0  0
  -86.7430   35.0818   -3.3320 F   0  0  0  0  0  0  0  0  0  0  0  0
  7  8  1  0  0  0
  8  9  1  0  0  0
  9 10  1  0  0  0
 10 11  1  0  0  0
 11 12  1  0  0  0
 12 13  1  0  0  0
 13 14  1  0  0  0
 14 15  2  0  0  0
 14  1  1  0  0  0
  1  2  2  0  0  0
  2  3  1  0  0  0
  3  4  2  0  0  0
  4  5  1  0  0  0
  5  6  2  0  0  0
  5 23  1  0  0  0
 23 24  2  0  0  0
 24 25  1  0  0  0
 25 26  2  0  0  0
 26 27  1  0  0  0
 27 29  1  0  0  0
 29 30  1  0  0  0
 30 31  1  0  0  0
 30 32  1  0  0  0
 30 33  1  0  0  0
 27 28  2  0  0  0
 10 16  1  0  0  0
 16 17  2  0  0  0
 17 18  1  0  0  0
 18 19  2  0  0  0
 19 20  1  0  0  0
 19 21  1  0  0  0
 21 22  2  0  0  0
 13  8  1  0  0  0
  6  1  1  0  0  0
 28 23  1  0  0  0
 22 16  1  0  0  0
M  END
> <minimizedAffinity>
-8.07923

> <CNNscore>
0.1349662095

> <CNNaffinity>
6.3452658653

> <CNN_VS>
0.8563964963

> <CNNaffinity_variance>
0.1415442973

$$$$
[H]c1nc(N2C([H])([H])C([H])([H])N(C(=O)c3c([H])c([H])c([H])c(-c4c([H])c([H])c([H])c(OC(F)(F)F)c4[H])c3[H])[C@]([H])(C([H])([H])[H])C2([H])[H])nc([H])c1Cl


 33 36  0  0  0  0  0  0  0  0999 V2000
  -88.4904   30.6269   -0.9618 C   0  0  0  0  0  0  0  0  0  0  0  0
  -87.3671   30.5756   -0.1826 C   0  0  0  0  0  0  0  0  0  0  0  0
  -86.4914   31.6758   -0.1958 C   0  0  0  0  0  0  0  0  0  0  0  0
  -86.7449   32.7807   -0.9681 C   0  0  0  0  0  0  0  0  0  0  0  0
  -87.8668   32.8537   -1.7593 C   0  0  0  0  0  0  0  0  0  0  0  0
  -88.7185   31.7859   -1.7471 C   0  0  0  0  0  0  0  0  0  0  0  0
  -87.7008   26.7466   -1.7941 C   0  0  0  0  0  0  0  0  0  0  0  0
  -88.3538   27.3079   -0.5362 C   0  0  0  0  0  0  0  0  0  0  0  0
  -88.9016   26.1194    0.2902 C   0  0  0  0  0  0  0  0  0  0  0  0
  -89.9747   26.6019    1.0997 N   0  0  0  0  0  0  0  0  0  0  0  0
  -91.1916   27.0477    0.3981 C   0  0  0  0  0  0  0  0  0  0  0  0
  -90.7468   27.4937   -0.9969 C   0  0  0  0  0  0  0  0  0  0  0  0
  -89.4241   28.1928   -0.8259 N   0  0  0  0  0  0  0  0  0  0  0  0
  -89.4688   29.5602   -0.9892 C   0  0  0  0  0  0  0  0  0  0  0  0
  -90.6903   30.0085   -1.2247 O   0  0  0  0  0  0  0  0  0  0  0  0
  -89.9136   26.6642    2.4917 C   0  0  0  0  0  0  0  0  0  0  0  0
  -90.1609   27.8087    3.1883 N   0  0  0  0  0  0  0  0  0  0  0  0
  -90.1052   27.8815    4.5276 C   0  0  0  0  0  0  0  0  0  0  0  0
  -89.7858   26.7643    5.2613 C   0  0  0  0  0  0  0  0  0  0  0  0
  -89.7068   26.8370    7.0191 Cl  0  0  0  0  0  0  0  0  0  0  0  0
  -89.5307   25.5935    4.5834 C   0  0  0  0  0  0  0  0  0  0  0  0
  -89.6002   25.5777    3.2528 N   0  0  0  0  0  0  0  0  0  0  0  0
  -88.1607   34.0245   -2.5942 C   0  0  0  0  0  0  0  0  0  0  0  0
  -87.1955   34.9480   -2.9408 C   0  0  0  0  0  0  0  0  0  0  0  0
  -87.5049   36.0510   -3.7359 C   0  0  0  0  0  0  0  0  0  0  0  0
  -88.7875   36.2536   -4.2017 C   0  0  0  0  0  0  0  0  0  0  0  0
  -89.7482   35.3275   -3.8524 C   0  0  0  0  0  0  0  0  0  0  0  0
  -89.4391   34.2301   -3.0608 C   0  0  0  0  0  0  0  0  0  0  0  0
  -91.0478   35.5257   -4.3196 O   0  0  0  0  0  0  0  0  0  0  0  0
  -91.6156   34.7214   -5.3245 C   0  0  0  0  0  0  0  0  0  0  0  0
  -92.4526   35.5087   -6.0784 F   0  0  0  0  0  0  0  0  0  0  0  0
  -92.3178   33.6672   -4.8230 F   0  0  0  0  0  0  0  0  0  0  0  0
  -90.6222   34.2614   -6.1744 F   0  0  0  0  0  0  0  0  0  0  0  0
  7  8  1  0  0  0
  8  9  1  0  0  0
  9 10  1  0  0  0
 10 11  1  0  0  0
 11 12  1  0  0  0
 12 13  1  0  0  0
 13 14  1  0  0  0
 14 15  2  0  0  0
 14  1  1  0  0  0
  1  2  2  0  0  0
  2  3  1  0  0  0
  3  4  2  0  0  0
  4  5  1  0  0  0
  5  6  2  0  0  0
  5 23  1  0  0  0
 23 24  2  0  0  0
 24 25  1  0  0  0
 25 26  2  0  0  0
 26 27  1  0  0  0
 27 29  1  0  0  0
 29 30  1  0  0  0
 30 31  1  0  0  0
 30 32  1  0  0  0
 30 33  1  0  0  0
 27 28  2  0  0  0
 10 16  1  0  0  0
 16 17  2  0  0  0
 17 18  1  0  0  0
 18 19  2  0  0  0
 19 20  1  0  0  0
 19 21  1  0  0  0
 21 22  2  0  0  0
 13  8  1  0  0  0
  6  1  1  0  0  0
 28 23  1  0  0  0
 22 16  1  0  0  0
M  END
> <minimizedAffinity>
-7.95405

> <CNNscore>
0.1210889816

> <CNNaffinity>
6.1734533310

> <CNN_VS>
0.7475371957

> <CNNaffinity_variance>
0.1962716728

$$$$
[H]c1nc(N2C([H])([H])C([H])([H])N(C(=O)c3c([H])c([H])c([H])c(-c4c([H])c([H])c([H])c(OC(F)(F)F)c4[H])c3[H])[C@]([H])(C([H])([H])[H])C2([H])[H])nc([H])c1Cl


 33 36  0  0  0  0  0  0  0  0999 V2000
  -89.0859   27.6837    0.8819 C   0  0  0  0  0  0  0  0  0  0  0  0
  -89.2206   26.7051    1.8282 C   0  0  0  0  0  0  0  0  0  0  0  0
  -88.1270   26.4296    2.6681 C   0  0  0  0  0  0  0  0  0  0  0  0
  -86.9463   27.1180    2.5516 C   0  0  0  0  0  0  0  0  0  0  0  0
  -86.7881   28.1047    1.6075 C   0  0  0  0  0  0  0  0  0  0  0  0
  -87.8497   28.3736    0.7912 C   0  0  0  0  0  0  0  0  0  0  0  0
  -89.1791   27.0212   -3.1088 C   0  0  0  0  0  0  0  0  0  0  0  0
  -90.1982   26.5633   -2.0716 C   0  0  0  0  0  0  0  0  0  0  0  0
  -91.4278   26.0004   -2.8243 C   0  0  0  0  0  0  0  0  0  0  0  0
  -92.5640   26.1234   -1.9678 N   0  0  0  0  0  0  0  0  0  0  0  0
  -93.0200   27.4896   -1.6561 C   0  0  0  0  0  0  0  0  0  0  0  0
  -91.7913   28.3937   -1.7802 C   0  0  0  0  0  0  0  0  0  0  0  0
  -90.6260   27.6181   -1.2249 N   0  0  0  0  0  0  0  0  0  0  0  0
  -90.1651   28.0634   -0.0053 C   0  0  0  0  0  0  0  0  0  0  0  0
  -90.8722   29.0737    0.4720 O   0  0  0  0  0  0  0  0  0  0  0  0
  -93.2386   25.0269   -1.4312 C   0  0  0  0  0  0  0  0  0  0  0  0
  -94.4203   24.5721   -1.9342 N   0  0  0  0  0  0  0  0  0  0  0  0
  -95.0792   23.5183   -1.4267 C   0  0  0  0  0  0  0  0  0  0  0  0
  -94.5628   22.8435   -0.3467 C   0  0  0  0  0  0  0  0  0  0  0  0
  -95.4103   21.4585    0.3354 Cl  0  0  0  0  0  0  0  0  0  0  0  0
  -93.3697   23.2812    0.1825 C   0  0  0  0  0  0  0  0  0  0  0  0
  -92.7580   24.3329   -0.3609 N   0  0  0  0  0  0  0  0  0  0  0  0
  -85.5353   28.8556    1.4627 C   0  0  0  0  0  0  0  0  0  0  0  0
  -84.3749   28.4931    2.1160 C   0  0  0  0  0  0  0  0  0  0  0  0
  -83.1993   29.2265    1.9587 C   0  0  0  0  0  0  0  0  0  0  0  0
  -83.1596   30.3388    1.1439 C   0  0  0  0  0  0  0  0  0  0  0  0
  -84.3221   30.6967    0.4933 C   0  0  0  0  0  0  0  0  0  0  0  0
  -85.4917   29.9660    0.6507 C   0  0  0  0  0  0  0  0  0  0  0  0
  -84.2898   31.8207   -0.3325 O   0  0  0  0  0  0  0  0  0  0  0  0
  -85.4304   32.6073   -0.5756 C   0  0  0  0  0  0  0  0  0  0  0  0
  -85.0539   33.6749   -1.3549 F   0  0  0  0  0  0  0  0  0  0  0  0
  -86.0092   33.0660    0.5691 F   0  0  0  0  0  0  0  0  0  0  0  0
  -86.3543   31.8798   -1.3092 F   0  0  0  0  0  0  0  0  0  0  0  0
  7  8  1  0  0  0
  8  9  1  0  0  0
  9 10  1  0  0  0
 10 11  1  0  0  0
 11 12  1  0  0  0
 12 13  1  0  0  0
 13 14  1  0  0  0
 14 15  2  0  0  0
 14  1  1  0  0  0
  1  2  2  0  0  0
  2  3  1  0  0  0
  3  4  2  0  0  0
  4  5  1  0  0  0
  5  6  2  0  0  0
  5 23  1  0  0  0
 23 24  2  0  0  0
 24 25  1  0  0  0
 25 26  2  0  0  0
 26 27  1  0  0  0
 27 29  1  0  0  0
 29 30  1  0  0  0
 30 31  1  0  0  0
 30 32  1  0  0  0
 30 33  1  0  0  0
 27 28  2  0  0  0
 10 16  1  0  0  0
 16 17  2  0  0  0
 17 18  1  0  0  0
 18 19  2  0  0  0
 19 20  1  0  0  0
 19 21  1  0  0  0
 21 22  2  0  0  0
 13  8  1  0  0  0
  6  1  1  0  0  0
 28 23  1  0  0  0
 22 16  1  0  0  0
M  END
> <minimizedAffinity>
-7.52014

> <CNNscore>
0.1092321873

> <CNNaffinity>
6.0136399269

> <CNN_VS>
0.6568830609

> <CNNaffinity_variance>
0.0869428962

$$$$
[H]c1nc(N2C([H])([H])C([H])([H])N(C(=O)c3c([H])c([H])c([H])c(-c4c([H])c([H])c([H])c(OC(F)(F)F)c4[H])c3[H])[C@]([H])(C([H])([H])[H])C2([H])[H])nc([H])c1Cl


 33 36  0  0  0  0  0  0  0  0999 V2000
  -87.1900   28.1083    1.8221 C   0  0  0  0  0  0  0  0  0  0  0  0
  -86.5165   26.9582    2.1305 C   0  0  0  0  0  0  0  0  0  0  0  0
  -85.1177   26.9416    1.9872 C   0  0  0  0  0  0  0  0  0  0  0  0
  -84.4320   28.0455    1.5485 C   0  0  0  0  0  0  0  0  0  0  0  0
  -85.0881   29.2115    1.2320 C   0  0  0  0  0  0  0  0  0  0  0  0
  -86.4468   29.2291    1.3712 C   0  0  0  0  0  0  0  0  0  0  0  0
  -89.5393   30.6791   -0.2382 C   0  0  0  0  0  0  0  0  0  0  0  0
  -89.6694   29.1619   -0.1674 C   0  0  0  0  0  0  0  0  0  0  0  0
  -91.0136   28.7654   -0.8242 C   0  0  0  0  0  0  0  0  0  0  0  0
  -91.4239   27.5148   -0.2696 N   0  0  0  0  0  0  0  0  0  0  0  0
  -91.7892   27.5057    1.1581 C   0  0  0  0  0  0  0  0  0  0  0  0
  -91.0128   28.6525    1.8097 C   0  0  0  0  0  0  0  0  0  0  0  0
  -89.6522   28.6747    1.1648 N   0  0  0  0  0  0  0  0  0  0  0  0
  -88.6246   28.2344    1.9702 C   0  0  0  0  0  0  0  0  0  0  0  0
  -89.0419   27.8292    3.1577 O   0  0  0  0  0  0  0  0  0  0  0  0
  -91.4896   26.3350   -1.0106 C   0  0  0  0  0  0  0  0  0  0  0  0
  -91.0197   25.1450   -0.5421 N   0  0  0  0  0  0  0  0  0  0  0  0
  -91.0770   24.0031   -1.2455 C   0  0  0  0  0  0  0  0  0  0  0  0
  -91.6308   24.0007   -2.5032 C   0  0  0  0  0  0  0  0  0  0  0  0
  -91.7161   22.5141   -3.4436 Cl  0  0  0  0  0  0  0  0  0  0  0  0
  -92.1137   25.1894   -3.0022 C   0  0  0  0  0  0  0  0  0  0  0  0
  -92.0313   26.2935   -2.2608 N   0  0  0  0  0  0  0  0  0  0  0  0
  -84.3775   30.4061    0.7607 C   0  0  0  0  0  0  0  0  0  0  0  0
  -83.0249   30.5911    0.9627 C   0  0  0  0  0  0  0  0  0  0  0  0
  -82.3770   31.7371    0.5030 C   0  0  0  0  0  0  0  0  0  0  0  0
  -83.0689   32.7232   -0.1691 C   0  0  0  0  0  0  0  0  0  0  0  0
  -84.4206   32.5333   -0.3682 C   0  0  0  0  0  0  0  0  0  0  0  0
  -85.0645   31.3922    0.0899 C   0  0  0  0  0  0  0  0  0  0  0  0
  -85.1273   33.5263   -1.0471 O   0  0  0  0  0  0  0  0  0  0  0  0
  -86.4563   33.3457   -1.4716 C   0  0  0  0  0  0  0  0  0  0  0  0
  -87.2570   33.2946   -0.3558 F   0  0  0  0  0  0  0  0  0  0  0  0
  -86.6273   32.2087   -2.2022 F   0  0  0  0  0  0  0  0  0  0  0  0
  -86.8661   34.4442   -2.2108 F   0  0  0  0  0  0  0  0  0  0  0  0
  7  8  1  0  0  0
  8  9  1  0  0  0
  9 10  1  0  0  0
 10 11  1  0  0  0
 11 12  1  0  0  0
 12 13  1  0  0  0
 13 14  1  0  0  0
 14 15  2  0  0  0
 14  1  1  0  0  0
  1  2  2  0  0  0
  2  3  1  0  0  0
  3  4  2  0  0  0
  4  5  1  0  0  0
  5  6  2  0  0  0
  5 23  1  0  0  0
 23 24  2  0  0  0
 24 25  1  0  0  0
 25 26  2  0  0  0
 26 27  1  0  0  0
 27 29  1  0  0  0
 29 30  1  0  0  0
 30 31  1  0  0  0
 30 32  1  0  0  0
 30 33  1  0  0  0
 27 28  2  0  0  0
 10 16  1  0  0  0
 16 17  2  0  0  0
 17 18  1  0  0  0
 18 19  2  0  0  0
 19 20  1  0  0  0
 19 21  1  0  0  0
 21 22  2  0  0  0
 13  8  1  0  0  0
  6  1  1  0  0  0
 28 23  1  0  0  0
 22 16  1  0  0  0
M  END
> <minimizedAffinity>
-7.91252

> <CNNscore>
0.1034419611

> <CNNaffinity>
6.4038190842

> <CNN_VS>
0.6624236107

> <CNNaffinity_variance>
0.0322219580

$$$$
[H]c1nc(N2C([H])([H])C([H])([H])N(C(=O)c3c([H])c([H])c([H])c(-c4c([H])c([H])c([H])c(OC(F)(F)F)c4[H])c3[H])[C@]([H])(C([H])([H])[H])C2([H])[H])nc([H])c1Cl


 33 36  0  0  0  0  0  0  0  0999 V2000
  -89.6472   27.3363   -1.0538 C   0  0  0  0  0  0  0  0  0  0  0  0
  -88.8451   26.2285   -1.0781 C   0  0  0  0  0  0  0  0  0  0  0  0
  -87.4545   26.4051   -0.9656 C   0  0  0  0  0  0  0  0  0  0  0  0
  -86.9019   27.6537   -0.8349 C   0  0  0  0  0  0  0  0  0  0  0  0
  -87.6885   28.7809   -0.8089 C   0  0  0  0  0  0  0  0  0  0  0  0
  -89.0394   28.6107   -0.9177 C   0  0  0  0  0  0  0  0  0  0  0  0
  -91.7822   26.6182   -4.4153 C   0  0  0  0  0  0  0  0  0  0  0  0
  -91.8077   25.8213   -3.1160 C   0  0  0  0  0  0  0  0  0  0  0  0
  -92.9805   24.8144   -3.1947 C   0  0  0  0  0  0  0  0  0  0  0  0
  -93.3868   24.5049   -1.8610 N   0  0  0  0  0  0  0  0  0  0  0  0
  -93.9973   25.5949   -1.0794 C   0  0  0  0  0  0  0  0  0  0  0  0
  -93.4374   26.9006   -1.6490 C   0  0  0  0  0  0  0  0  0  0  0  0
  -91.9898   26.6444   -1.9750 N   0  0  0  0  0  0  0  0  0  0  0  0
  -91.0907   27.2546   -1.1279 C   0  0  0  0  0  0  0  0  0  0  0  0
  -91.6798   27.9223   -0.1503 O   0  0  0  0  0  0  0  0  0  0  0  0
  -93.2309   23.2428   -1.2881 C   0  0  0  0  0  0  0  0  0  0  0  0
  -92.0750   22.8461   -0.6858 N   0  0  0  0  0  0  0  0  0  0  0  0
  -91.9126   21.6344   -0.1312 C   0  0  0  0  0  0  0  0  0  0  0  0
  -92.9439   20.7265   -0.1554 C   0  0  0  0  0  0  0  0  0  0  0  0
  -92.7528   19.1314    0.5660 Cl  0  0  0  0  0  0  0  0  0  0  0  0
  -94.1240   21.1005   -0.7578 C   0  0  0  0  0  0  0  0  0  0  0  0
  -94.2306   22.3162   -1.2928 N   0  0  0  0  0  0  0  0  0  0  0  0
  -87.1217   30.1277   -0.6698 C   0  0  0  0  0  0  0  0  0  0  0  0
  -87.8338   31.2670   -0.9848 C   0  0  0  0  0  0  0  0  0  0  0  0
  -87.2682   32.5336   -0.8422 C   0  0  0  0  0  0  0  0  0  0  0  0
  -85.9773   32.6874   -0.3810 C   0  0  0  0  0  0  0  0  0  0  0  0
  -85.2700   31.5454   -0.0676 C   0  0  0  0  0  0  0  0  0  0  0  0
  -85.8340   30.2851   -0.2101 C   0  0  0  0  0  0  0  0  0  0  0  0
  -83.9637   31.6928    0.3994 O   0  0  0  0  0  0  0  0  0  0  0  0
  -83.5973   31.3733    1.7195 C   0  0  0  0  0  0  0  0  0  0  0  0
  -83.0213   32.4864    2.2834 F   0  0  0  0  0  0  0  0  0  0  0  0
  -82.7239   30.3299    1.7872 F   0  0  0  0  0  0  0  0  0  0  0  0
  -84.7302   31.0855    2.4642 F   0  0  0  0  0  0  0  0  0  0  0  0
  7  8  1  0  0  0
  8  9  1  0  0  0
  9 10  1  0  0  0
 10 11  1  0  0  0
 11 12  1  0  0  0
 12 13  1  0  0  0
 13 14  1  0  0  0
 14 15  2  0  0  0
 14  1  1  0  0  0
  1  2  2  0  0  0
  2  3  1  0  0  0
  3  4  2  0  0  0
  4  5  1  0  0  0
  5  6  2  0  0  0
  5 23  1  0  0  0
 23 24  2  0  0  0
 24 25  1  0  0  0
 25 26  2  0  0  0
 26 27  1  0  0  0
 27 29  1  0  0  0
 29 30  1  0  0  0
 30 31  1  0  0  0
 30 32  1  0  0  0
 30 33  1  0  0  0
 27 28  2  0  0  0
 10 16  1  0  0  0
 16 17  2  0  0  0
 17 18  1  0  0  0
 18 19  2  0  0  0
 19 20  1  0  0  0
 19 21  1  0  0  0
 21 22  2  0  0  0
 13  8  1  0  0  0
  6  1  1  0  0  0
 28 23  1  0  0  0
 22 16  1  0  0  0
M  END
> <minimizedAffinity>
-7.35359

> <CNNscore>
0.1004051045

> <CNNaffinity>
5.6351690292

> <CNN_VS>
0.5657997131

> <CNNaffinity_variance>
0.2315013707

$$$$
[H]Oc1c([H])c([H])c(C2([H])c3c([H])c(O[H])c([H])c([H])c3Oc3c([H])c([H])c(O[H])c([H])c32)c([H])c1[H]


 26 29  0  0  0  0  0  0  0  0999 V2000
  -87.9701   32.9173   -1.2098 C   0  0  0  0  0  0  0  0  0  0  0  0
  -89.1841   33.3693   -1.7075 O   0  0  0  0  0  0  0  0  0  0  0  0
  -86.8585   33.6934   -1.4599 C   0  0  0  0  0  0  0  0  0  0  0  0
  -85.6208   33.2704   -0.9749 C   0  0  0  0  0  0  0  0  0  0  0  0
  -85.5162   32.0950   -0.2580 C   0  0  0  0  0  0  0  0  0  0  0  0
  -86.6286   31.3040    0.0008 C   0  0  0  0  0  0  0  0  0  0  0  0
  -87.8364   31.7394   -0.4859 C   0  0  0  0  0  0  0  0  0  0  0  0
  -86.5315   30.0366    0.7705 C   0  0  0  0  0  0  0  0  0  0  0  0
  -85.1519   29.7504    1.2017 C   0  0  0  0  0  0  0  0  0  0  0  0
  -84.0719   30.5489    0.9323 C   0  0  0  0  0  0  0  0  0  0  0  0
  -82.8053   30.2341    1.3588 C   0  0  0  0  0  0  0  0  0  0  0  0
  -82.6310   29.0687    2.0831 C   0  0  0  0  0  0  0  0  0  0  0  0
  -83.6915   28.2373    2.3757 C   0  0  0  0  0  0  0  0  0  0  0  0
  -83.4730   27.0857    3.1002 O   0  0  0  0  0  0  0  0  0  0  0  0
  -84.9330   28.5972    1.9273 C   0  0  0  0  0  0  0  0  0  0  0  0
  -84.2606   31.7114    0.2071 O   0  0  0  0  0  0  0  0  0  0  0  0
  -89.8194   33.9677   -1.2222 H   0  0  0  0  0  0  0  0  0  0  0  0
  -83.5478   27.1663    4.1155 H   0  0  0  0  0  0  0  0  0  0  0  0
  -87.1649   28.8943    0.0850 C   0  0  0  0  0  0  0  0  0  0  0  0
  -86.7764   28.4906   -1.1755 C   0  0  0  0  0  0  0  0  0  0  0  0
  -87.3654   27.4184   -1.8279 C   0  0  0  0  0  0  0  0  0  0  0  0
  -88.3761   26.7115   -1.2242 C   0  0  0  0  0  0  0  0  0  0  0  0
  -88.9736   25.6342   -1.8704 O   0  0  0  0  0  0  0  0  0  0  0  0
  -88.7890   27.0921    0.0413 C   0  0  0  0  0  0  0  0  0  0  0  0
  -88.1909   28.1599    0.6724 C   0  0  0  0  0  0  0  0  0  0  0  0
  -88.6066   24.6868   -1.7576 H   0  0  0  0  0  0  0  0  0  0  0  0
  1  2  1  0  0  0
  1  3  2  0  0  0
  3  4  1  0  0  0
  4  5  2  0  0  0
  5  6  1  0  0  0
  6  7  2  0  0  0
  6  8  1  0  0  0
  8 19  1  0  0  0
 19 20  2  0  0  0
 20 21  1  0  0  0
 21 22  2  0  0  0
 22 23  1  0  0  0
 22 24  1  0  0  0
 24 25  2  0  0  0
  8  9  1  0  0  0
  9 10  2  0  0  0
 10 11  1  0  0  0
 11 12  2  0  0  0
 12 13  1  0  0  0
 13 14  1  0  0  0
 13 15  2  0  0  0
 10 16  1  0  0  0
  7  1  1  0  0  0
 25 19  1  0  0  0
 15  9  1  0  0  0
 16  5  1  0  0  0
  2 17  1  0  0  0
 23 26  1  0  0  0
 14 18  1  0  0  0
M  END
> <minimizedAffinity>
-11.18733

> <CNNscore>
0.5084760189

> <CNNaffinity>
6.2395596504

> <CNN_VS>
3.1726665497

> <CNNaffinity_variance>
0.1299589425

$$$$
[H]Oc1c([H])c([H])c(C2([H])c3c([H])c(O[H])c([H])c([H])c3Oc3c([H])c([H])c(O[H])c([H])c32)c([H])c1[H]


 26 29  0  0  0  0  0  0  0  0999 V2000
  -84.1019   27.7761    2.4457 C   0  0  0  0  0  0  0  0  0  0  0  0
  -83.3237   26.8394    3.1109 O   0  0  0  0  0  0  0  0  0  0  0  0
  -83.5868   29.0487    2.3207 C   0  0  0  0  0  0  0  0  0  0  0  0
  -84.3413   30.0168    1.6577 C   0  0  0  0  0  0  0  0  0  0  0  0
  -85.5809   29.7013    1.1379 C   0  0  0  0  0  0  0  0  0  0  0  0
  -86.1112   28.4227    1.2570 C   0  0  0  0  0  0  0  0  0  0  0  0
  -85.3516   27.4858    1.9132 C   0  0  0  0  0  0  0  0  0  0  0  0
  -87.4437   28.0684    0.7031 C   0  0  0  0  0  0  0  0  0  0  0  0
  -88.0936   29.2120    0.0390 C   0  0  0  0  0  0  0  0  0  0  0  0
  -87.5472   30.4640   -0.0642 C   0  0  0  0  0  0  0  0  0  0  0  0
  -88.1975   31.4958   -0.6948 C   0  0  0  0  0  0  0  0  0  0  0  0
  -89.4447   31.2466   -1.2383 C   0  0  0  0  0  0  0  0  0  0  0  0
  -90.0300   30.0007   -1.1562 C   0  0  0  0  0  0  0  0  0  0  0  0
  -91.2743   29.7961   -1.7117 O   0  0  0  0  0  0  0  0  0  0  0  0
  -89.3397   29.0072   -0.5173 C   0  0  0  0  0  0  0  0  0  0  0  0
  -86.2992   30.6993    0.4838 O   0  0  0  0  0  0  0  0  0  0  0  0
  -82.6506   26.2395    2.6818 H   0  0  0  0  0  0  0  0  0  0  0  0
  -91.2926   29.4921   -2.6865 H   0  0  0  0  0  0  0  0  0  0  0  0
  -88.3203   27.4045    1.6864 C   0  0  0  0  0  0  0  0  0  0  0  0
  -88.7256   28.0319    2.8461 C   0  0  0  0  0  0  0  0  0  0  0  0
  -89.5492   27.4165    3.7762 C   0  0  0  0  0  0  0  0  0  0  0  0
  -89.9952   26.1351    3.5649 C   0  0  0  0  0  0  0  0  0  0  0  0
  -90.8219   25.5088    4.4920 O   0  0  0  0  0  0  0  0  0  0  0  0
  -89.6059   25.4781    2.4101 C   0  0  0  0  0  0  0  0  0  0  0  0
  -88.7874   26.1070    1.4986 C   0  0  0  0  0  0  0  0  0  0  0  0
  -91.8389   25.5876    4.4242 H   0  0  0  0  0  0  0  0  0  0  0  0
  1  2  1  0  0  0
  1  3  2  0  0  0
  3  4  1  0  0  0
  4  5  2  0  0  0
  5  6  1  0  0  0
  6  7  2  0  0  0
  6  8  1  0  0  0
  8 19  1  0  0  0
 19 20  2  0  0  0
 20 21  1  0  0  0
 21 22  2  0  0  0
 22 23  1  0  0  0
 22 24  1  0  0  0
 24 25  2  0  0  0
  8  9  1  0  0  0
  9 10  2  0  0  0
 10 11  1  0  0  0
 11 12  2  0  0  0
 12 13  1  0  0  0
 13 14  1  0  0  0
 13 15  2  0  0  0
 10 16  1  0  0  0
  7  1  1  0  0  0
 25 19  1  0  0  0
 15  9  1  0  0  0
 16  5  1  0  0  0
  2 17  1  0  0  0
 23 26  1  0  0  0
 14 18  1  0  0  0
M  END
> <minimizedAffinity>
-9.40619

> <CNNscore>
0.4674925208

> <CNNaffinity>
6.1784777641

> <CNN_VS>
2.8883922100

> <CNNaffinity_variance>
0.2225057632

$$$$
[H]Oc1c([H])c([H])c(C2([H])c3c([H])c(O[H])c([H])c([H])c3Oc3c([H])c([H])c(O[H])c([H])c32)c([H])c1[H]


 26 29  0  0  0  0  0  0  0  0999 V2000
  -83.5656   32.1978    0.0777 C   0  0  0  0  0  0  0  0  0  0  0  0
  -83.0574   33.4072   -0.3749 O   0  0  0  0  0  0  0  0  0  0  0  0
  -82.6886   31.3437    0.7118 C   0  0  0  0  0  0  0  0  0  0  0  0
  -83.1642   30.1188    1.1802 C   0  0  0  0  0  0  0  0  0  0  0  0
  -84.4899   29.7726    1.0094 C   0  0  0  0  0  0  0  0  0  0  0  0
  -85.3837   30.6243    0.3723 C   0  0  0  0  0  0  0  0  0  0  0  0
  -84.8941   31.8245   -0.0807 C   0  0  0  0  0  0  0  0  0  0  0  0
  -86.8128   30.2654    0.1810 C   0  0  0  0  0  0  0  0  0  0  0  0
  -87.1342   28.9395    0.7376 C   0  0  0  0  0  0  0  0  0  0  0  0
  -86.2320   28.1192    1.3619 C   0  0  0  0  0  0  0  0  0  0  0  0
  -86.5856   26.8908    1.8632 C   0  0  0  0  0  0  0  0  0  0  0  0
  -87.8999   26.4829    1.7251 C   0  0  0  0  0  0  0  0  0  0  0  0
  -88.8392   27.2783    1.1034 C   0  0  0  0  0  0  0  0  0  0  0  0
  -90.1380   26.8328    0.9874 O   0  0  0  0  0  0  0  0  0  0  0  0
  -88.4348   28.4933    0.6215 C   0  0  0  0  0  0  0  0  0  0  0  0
  -84.9209   28.5397    1.4931 O   0  0  0  0  0  0  0  0  0  0  0  0
  -83.0283   34.2543    0.1532 H   0  0  0  0  0  0  0  0  0  0  0  0
  -90.7708   27.0724    1.7523 H   0  0  0  0  0  0  0  0  0  0  0  0
  -87.2671   30.4256   -1.2134 C   0  0  0  0  0  0  0  0  0  0  0  0
  -87.3335   29.3610   -2.0880 C   0  0  0  0  0  0  0  0  0  0  0  0
  -87.7591   29.5013   -3.4000 C   0  0  0  0  0  0  0  0  0  0  0  0
  -88.1352   30.7326   -3.8775 C   0  0  0  0  0  0  0  0  0  0  0  0
  -88.5637   30.8839   -5.1923 O   0  0  0  0  0  0  0  0  0  0  0  0
  -88.0797   31.8214   -3.0241 C   0  0  0  0  0  0  0  0  0  0  0  0
  -87.6542   31.6609   -1.7244 C   0  0  0  0  0  0  0  0  0  0  0  0
  -89.5517   30.7859   -5.4356 H   0  0  0  0  0  0  0  0  0  0  0  0
  1  2  1  0  0  0
  1  3  2  0  0  0
  3  4  1  0  0  0
  4  5  2  0  0  0
  5  6  1  0  0  0
  6  7  2  0  0  0
  6  8  1  0  0  0
  8 19  1  0  0  0
 19 20  2  0  0  0
 20 21  1  0  0  0
 21 22  2  0  0  0
 22 23  1  0  0  0
 22 24  1  0  0  0
 24 25  2  0  0  0
  8  9  1  0  0  0
  9 10  2  0  0  0
 10 11  1  0  0  0
 11 12  2  0  0  0
 12 13  1  0  0  0
 13 14  1  0  0  0
 13 15  2  0  0  0
 10 16  1  0  0  0
  7  1  1  0  0  0
 25 19  1  0  0  0
 15  9  1  0  0  0
 16  5  1  0  0  0
  2 17  1  0  0  0
 23 26  1  0  0  0
 14 18  1  0  0  0
M  END
> <minimizedAffinity>
-10.66594

> <CNNscore>
0.4350599945

> <CNNaffinity>
6.1101207733

> <CNN_VS>
2.6582691669

> <CNNaffinity_variance>
0.2651766837

$$$$
[H]Oc1c([H])c([H])c(C2([H])c3c([H])c(O[H])c([H])c([H])c3Oc3c([H])c([H])c(O[H])c([H])c32)c([H])c1[H]


 26 29  0  0  0  0  0  0  0  0999 V2000
  -88.2797   32.7459   -1.2518 C   0  0  0  0  0  0  0  0  0  0  0  0
  -89.5026   33.1850   -1.7389 O   0  0  0  0  0  0  0  0  0  0  0  0
  -87.1732   33.5155   -1.5416 C   0  0  0  0  0  0  0  0  0  0  0  0
  -85.9267   33.1051   -1.0683 C   0  0  0  0  0  0  0  0  0  0  0  0
  -85.8086   31.9484   -0.3237 C   0  0  0  0  0  0  0  0  0  0  0  0
  -86.9157   31.1642   -0.0247 C   0  0  0  0  0  0  0  0  0  0  0  0
  -88.1323   31.5869   -0.5006 C   0  0  0  0  0  0  0  0  0  0  0  0
  -86.8041   29.9169    0.7752 C   0  0  0  0  0  0  0  0  0  0  0  0
  -85.4168   29.6419    1.1886 C   0  0  0  0  0  0  0  0  0  0  0  0
  -84.3422   30.4333    0.8795 C   0  0  0  0  0  0  0  0  0  0  0  0
  -83.0680   30.1296    1.2910 C   0  0  0  0  0  0  0  0  0  0  0  0
  -82.8800   28.9831    2.0415 C   0  0  0  0  0  0  0  0  0  0  0  0
  -83.9347   28.1594    2.3743 C   0  0  0  0  0  0  0  0  0  0  0  0
  -83.7025   27.0267    3.1239 O   0  0  0  0  0  0  0  0  0  0  0  0
  -85.1842   28.5076    1.9393 C   0  0  0  0  0  0  0  0  0  0  0  0
  -84.5446   31.5769    0.1283 O   0  0  0  0  0  0  0  0  0  0  0  0
  -90.1295   33.7956   -1.2577 H   0  0  0  0  0  0  0  0  0  0  0  0
  -83.7591   27.1332    4.1380 H   0  0  0  0  0  0  0  0  0  0  0  0
  -87.4492   28.7574    0.1306 C   0  0  0  0  0  0  0  0  0  0  0  0
  -88.5534   28.1372    0.6771 C   0  0  0  0  0  0  0  0  0  0  0  0
  -89.1667   27.0471    0.0790 C   0  0  0  0  0  0  0  0  0  0  0  0
  -88.6812   26.5418   -1.1018 C   0  0  0  0  0  0  0  0  0  0  0  0
  -89.2893   25.4484   -1.7099 O   0  0  0  0  0  0  0  0  0  0  0  0
  -87.5736   27.1423   -1.6760 C   0  0  0  0  0  0  0  0  0  0  0  0
  -86.9790   28.2243   -1.0660 C   0  0  0  0  0  0  0  0  0  0  0  0
  -90.0443   25.5786   -2.3869 H   0  0  0  0  0  0  0  0  0  0  0  0
  1  2  1  0  0  0
  1  3  2  0  0  0
  3  4  1  0  0  0
  4  5  2  0  0  0
  5  6  1  0  0  0
  6  7  2  0  0  0
  6  8  1  0  0  0
  8 19  1  0  0  0
 19 20  2  0  0  0
 20 21  1  0  0  0
 21 22  2  0  0  0
 22 23  1  0  0  0
 22 24  1  0  0  0
 24 25  2  0  0  0
  8  9  1  0  0  0
  9 10  2  0  0  0
 10 11  1  0  0  0
 11 12  2  0  0  0
 12 13  1  0  0  0
 13 14  1  0  0  0
 13 15  2  0  0  0
 10 16  1  0  0  0
  7  1  1  0  0  0
 25 19  1  0  0  0
 15  9  1  0  0  0
 16  5  1  0  0  0
  2 17  1  0  0  0
 23 26  1  0  0  0
 14 18  1  0  0  0
M  END
> <minimizedAffinity>
-10.66497

> <CNNscore>
0.4278295934

> <CNNaffinity>
6.1112327576

> <CNN_VS>
2.6145663261

> <CNNaffinity_variance>
0.1111613363

$$$$
[H]Oc1c([H])c([H])c(C2([H])c3c([H])c(O[H])c([H])c([H])c3Oc3c([H])c([H])c(O[H])c([H])c32)c([H])c1[H]


 26 29  0  0  0  0  0  0  0  0999 V2000
  -83.6798   32.5828   -0.1121 C   0  0  0  0  0  0  0  0  0  0  0  0
  -82.8398   33.6747   -0.2787 O   0  0  0  0  0  0  0  0  0  0  0  0
  -83.0979   31.3928    0.2697 C   0  0  0  0  0  0  0  0  0  0  0  0
  -83.9114   30.2735    0.4469 C   0  0  0  0  0  0  0  0  0  0  0  0
  -85.2741   30.3609    0.2422 C   0  0  0  0  0  0  0  0  0  0  0  0
  -85.8728   31.5541   -0.1426 C   0  0  0  0  0  0  0  0  0  0  0  0
  -85.0532   32.6428   -0.3112 C   0  0  0  0  0  0  0  0  0  0  0  0
  -87.3376   31.6634   -0.3668 C   0  0  0  0  0  0  0  0  0  0  0  0
  -88.0343   30.3863   -0.1333 C   0  0  0  0  0  0  0  0  0  0  0  0
  -87.4184   29.2229    0.2462 C   0  0  0  0  0  0  0  0  0  0  0  0
  -88.1170   28.0587    0.4504 C   0  0  0  0  0  0  0  0  0  0  0  0
  -89.4871   28.0777    0.2623 C   0  0  0  0  0  0  0  0  0  0  0  0
  -90.1456   29.2275   -0.1194 C   0  0  0  0  0  0  0  0  0  0  0  0
  -91.5120   29.2020   -0.2956 O   0  0  0  0  0  0  0  0  0  0  0  0
  -89.4027   30.3606   -0.3097 C   0  0  0  0  0  0  0  0  0  0  0  0
  -86.0477   29.2182    0.4308 O   0  0  0  0  0  0  0  0  0  0  0  0
  -82.5955   34.3286    0.4355 H   0  0  0  0  0  0  0  0  0  0  0  0
  -92.0803   29.4181    0.5250 H   0  0  0  0  0  0  0  0  0  0  0  0
  -87.6794   32.2719   -1.6665 C   0  0  0  0  0  0  0  0  0  0  0  0
  -88.2729   33.5136   -1.7594 C   0  0  0  0  0  0  0  0  0  0  0  0
  -88.5978   34.0939   -2.9758 C   0  0  0  0  0  0  0  0  0  0  0  0
  -88.3322   33.4339   -4.1503 C   0  0  0  0  0  0  0  0  0  0  0  0
  -88.6543   34.0075   -5.3759 O   0  0  0  0  0  0  0  0  0  0  0  0
  -87.7368   32.1853   -4.0907 C   0  0  0  0  0  0  0  0  0  0  0  0
  -87.4218   31.6263   -2.8723 C   0  0  0  0  0  0  0  0  0  0  0  0
  -87.9831   34.5998   -5.8695 H   0  0  0  0  0  0  0  0  0  0  0  0
  1  2  1  0  0  0
  1  3  2  0  0  0
  3  4  1  0  0  0
  4  5  2  0  0  0
  5  6  1  0  0  0
  6  7  2  0  0  0
  6  8  1  0  0  0
  8 19  1  0  0  0
 19 20  2  0  0  0
 20 21  1  0  0  0
 21 22  2  0  0  0
 22 23  1  0  0  0
 22 24  1  0  0  0
 24 25  2  0  0  0
  8  9  1  0  0  0
  9 10  2  0  0  0
 10 11  1  0  0  0
 11 12  2  0  0  0
 12 13  1  0  0  0
 13 14  1  0  0  0
 13 15  2  0  0  0
 10 16  1  0  0  0
  7  1  1  0  0  0
 25 19  1  0  0  0
 15  9  1  0  0  0
 16  5  1  0  0  0
  2 17  1  0  0  0
 23 26  1  0  0  0
 14 18  1  0  0  0
M  END
> <minimizedAffinity>
-9.43979

> <CNNscore>
0.3248094022

> <CNNaffinity>
5.8672294617

> <CNN_VS>
1.9057313204

> <CNNaffinity_variance>
0.0639989972

$$$$
[H]Oc1c([H])c([H])c(C2([H])c3c([H])c(O[H])c([H])c([H])c3Oc3c([H])c([H])c(O[H])c([H])c32)c([H])c1[H]


 26 29  0  0  0  0  0  0  0  0999 V2000
  -93.8704   24.2279   -4.4158 C   0  0  0  0  0  0  0  0  0  0  0  0
  -94.3596   23.0658   -4.9954 O   0  0  0  0  0  0  0  0  0  0  0  0
  -93.8541   25.3632   -5.1977 C   0  0  0  0  0  0  0  0  0  0  0  0
  -93.3691   26.5503   -4.6485 C   0  0  0  0  0  0  0  0  0  0  0  0
  -92.9149   26.5825   -3.3450 C   0  0  0  0  0  0  0  0  0  0  0  0
  -92.9261   25.4455   -2.5467 C   0  0  0  0  0  0  0  0  0  0  0  0
  -93.4075   24.2884   -3.1076 C   0  0  0  0  0  0  0  0  0  0  0  0
  -92.4403   25.4647   -1.1425 C   0  0  0  0  0  0  0  0  0  0  0  0
  -91.9672   26.7991   -0.7343 C   0  0  0  0  0  0  0  0  0  0  0  0
  -91.9674   27.9048   -1.5431 C   0  0  0  0  0  0  0  0  0  0  0  0
  -91.5141   29.1267   -1.1111 C   0  0  0  0  0  0  0  0  0  0  0  0
  -91.0448   29.2278    0.1860 C   0  0  0  0  0  0  0  0  0  0  0  0
  -91.0275   28.1393    1.0324 C   0  0  0  0  0  0  0  0  0  0  0  0
  -90.5515   28.2845    2.3173 O   0  0  0  0  0  0  0  0  0  0  0  0
  -91.4905   26.9446    0.5524 C   0  0  0  0  0  0  0  0  0  0  0  0
  -92.4395   27.7895   -2.8380 O   0  0  0  0  0  0  0  0  0  0  0  0
  -95.3135   22.7706   -4.9794 H   0  0  0  0  0  0  0  0  0  0  0  0
  -91.2364   28.5429    3.0294 H   0  0  0  0  0  0  0  0  0  0  0  0
  -91.4622   24.3985   -0.8549 C   0  0  0  0  0  0  0  0  0  0  0  0
  -90.2718   24.2926   -1.5436 C   0  0  0  0  0  0  0  0  0  0  0  0
  -89.3462   23.2944   -1.2807 C   0  0  0  0  0  0  0  0  0  0  0  0
  -89.5938   22.3609   -0.3046 C   0  0  0  0  0  0  0  0  0  0  0  0
  -88.6717   21.3554   -0.0332 O   0  0  0  0  0  0  0  0  0  0  0  0
  -90.7802   22.4400    0.4047 C   0  0  0  0  0  0  0  0  0  0  0  0
  -91.6865   23.4393    0.1283 C   0  0  0  0  0  0  0  0  0  0  0  0
  -87.9353   21.4940    0.6623 H   0  0  0  0  0  0  0  0  0  0  0  0
  1  2  1  0  0  0
  1  3  2  0  0  0
  3  4  1  0  0  0
  4  5  2  0  0  0
  5  6  1  0  0  0
  6  7  2  0  0  0
  6  8  1  0  0  0
  8 19  1  0  0  0
 19 20  2  0  0  0
 20 21  1  0  0  0
 21 22  2  0  0  0
 22 23  1  0  0  0
 22 24  1  0  0  0
 24 25  2  0  0  0
  8  9  1  0  0  0
  9 10  2  0  0  0
 10 11  1  0  0  0
 11 12  2  0  0  0
 12 13  1  0  0  0
 13 14  1  0  0  0
 13 15  2  0  0  0
 10 16  1  0  0  0
  7  1  1  0  0  0
 25 19  1  0  0  0
 15  9  1  0  0  0
 16  5  1  0  0  0
  2 17  1  0  0  0
 23 26  1  0  0  0
 14 18  1  0  0  0
M  END
> <minimizedAffinity>
-6.11772

> <CNNscore>
0.3056489825

> <CNNaffinity>
4.8595924377

> <CNN_VS>
1.4853295088

> <CNNaffinity_variance>
0.0696369559

$$$$
[H]Oc1c([H])c([H])c(C2([H])c3c([H])c(O[H])c([H])c([H])c3Oc3c([H])c([H])c(O[H])c([H])c32)c([H])c1[H]


 26 29  0  0  0  0  0  0  0  0999 V2000
  -86.3995   27.2437    1.3466 C   0  0  0  0  0  0  0  0  0  0  0  0
  -85.6003   26.7047    2.3447 O   0  0  0  0  0  0  0  0  0  0  0  0
  -87.0589   26.3585    0.5206 C   0  0  0  0  0  0  0  0  0  0  0  0
  -87.8715   26.8644   -0.4942 C   0  0  0  0  0  0  0  0  0  0  0  0
  -88.0096   28.2276   -0.6643 C   0  0  0  0  0  0  0  0  0  0  0  0
  -87.3507   29.1301    0.1612 C   0  0  0  0  0  0  0  0  0  0  0  0
  -86.5563   28.6103    1.1533 C   0  0  0  0  0  0  0  0  0  0  0  0
  -87.4894   30.5996   -0.0098 C   0  0  0  0  0  0  0  0  0  0  0  0
  -88.3842   30.9490   -1.1271 C   0  0  0  0  0  0  0  0  0  0  0  0
  -89.0220   30.0374   -1.9263 C   0  0  0  0  0  0  0  0  0  0  0  0
  -89.8466   30.4183   -2.9560 C   0  0  0  0  0  0  0  0  0  0  0  0
  -90.0285   31.7709   -3.1807 C   0  0  0  0  0  0  0  0  0  0  0  0
  -89.4050   32.7208   -2.3994 C   0  0  0  0  0  0  0  0  0  0  0  0
  -89.6142   34.0580   -2.6582 O   0  0  0  0  0  0  0  0  0  0  0  0
  -88.5937   32.2881   -1.3863 C   0  0  0  0  0  0  0  0  0  0  0  0
  -88.8312   28.6880   -1.6904 O   0  0  0  0  0  0  0  0  0  0  0  0
  -85.9048   26.4796    3.2688 H   0  0  0  0  0  0  0  0  0  0  0  0
  -90.3973   34.4981   -2.1722 H   0  0  0  0  0  0  0  0  0  0  0  0
  -86.1920   31.2986   -0.0762 C   0  0  0  0  0  0  0  0  0  0  0  0
  -86.0959   32.6318   -0.4165 C   0  0  0  0  0  0  0  0  0  0  0  0
  -84.8815   33.2975   -0.4816 C   0  0  0  0  0  0  0  0  0  0  0  0
  -83.7124   32.6333   -0.2029 C   0  0  0  0  0  0  0  0  0  0  0  0
  -82.4889   33.2921   -0.2655 O   0  0  0  0  0  0  0  0  0  0  0  0
  -83.7754   31.2938    0.1418 C   0  0  0  0  0  0  0  0  0  0  0  0
  -84.9916   30.6509    0.2009 C   0  0  0  0  0  0  0  0  0  0  0  0
  -82.1042   33.7615    0.5572 H   0  0  0  0  0  0  0  0  0  0  0  0
  1  2  1  0  0  0
  1  3  2  0  0  0
  3  4  1  0  0  0
  4  5  2  0  0  0
  5  6  1  0  0  0
  6  7  2  0  0  0
  6  8  1  0  0  0
  8 19  1  0  0  0
 19 20  2  0  0  0
 20 21  1  0  0  0
 21 22  2  0  0  0
 22 23  1  0  0  0
 22 24  1  0  0  0
 24 25  2  0  0  0
  8  9  1  0  0  0
  9 10  2  0  0  0
 10 11  1  0  0  0
 11 12  2  0  0  0
 12 13  1  0  0  0
 13 14  1  0  0  0
 13 15  2  0  0  0
 10 16  1  0  0  0
  7  1  1  0  0  0
 25 19  1  0  0  0
 15  9  1  0  0  0
 16  5  1  0  0  0
  2 17  1  0  0  0
 23 26  1  0  0  0
 14 18  1  0  0  0
M  END
> <minimizedAffinity>
-9.54128

> <CNNscore>
0.2935391366

> <CNNaffinity>
5.8640999794

> <CNN_VS>
1.7213428020

> <CNNaffinity_variance>
0.2759135962

$$$$
[H]Oc1c([H])c([H])c(C2([H])c3c([H])c(O[H])c([H])c([H])c3Oc3c([H])c([H])c(O[H])c([H])c32)c([H])c1[H]


 26 29  0  0  0  0  0  0  0  0999 V2000
  -84.9217   28.0502    1.9670 C   0  0  0  0  0  0  0  0  0  0  0  0
  -84.6418   26.8044    2.5103 O   0  0  0  0  0  0  0  0  0  0  0  0
  -84.3065   29.1413    2.5430 C   0  0  0  0  0  0  0  0  0  0  0  0
  -84.5642   30.4100    2.0231 C   0  0  0  0  0  0  0  0  0  0  0  0
  -85.4205   30.5648    0.9511 C   0  0  0  0  0  0  0  0  0  0  0  0
  -86.0465   29.4736    0.3617 C   0  0  0  0  0  0  0  0  0  0  0  0
  -85.7785   28.2346    0.8894 C   0  0  0  0  0  0  0  0  0  0  0  0
  -86.9706   29.6247   -0.7921 C   0  0  0  0  0  0  0  0  0  0  0  0
  -87.1219   31.0310   -1.2049 C   0  0  0  0  0  0  0  0  0  0  0  0
  -86.4918   32.0892   -0.6051 C   0  0  0  0  0  0  0  0  0  0  0  0
  -86.6689   33.3825   -1.0308 C   0  0  0  0  0  0  0  0  0  0  0  0
  -87.5149   33.6074   -2.1017 C   0  0  0  0  0  0  0  0  0  0  0  0
  -88.1683   32.5703   -2.7333 C   0  0  0  0  0  0  0  0  0  0  0  0
  -89.0023   32.8393   -3.7968 O   0  0  0  0  0  0  0  0  0  0  0  0
  -87.9571   31.3004   -2.2699 C   0  0  0  0  0  0  0  0  0  0  0  0
  -85.6485   31.8499    0.4647 O   0  0  0  0  0  0  0  0  0  0  0  0
  -83.8976   26.2038    2.2227 H   0  0  0  0  0  0  0  0  0  0  0  0
  -88.5732   32.8350   -4.7235 H   0  0  0  0  0  0  0  0  0  0  0  0
  -88.2645   28.9459   -0.5889 C   0  0  0  0  0  0  0  0  0  0  0  0
  -89.1985   29.4073    0.3152 C   0  0  0  0  0  0  0  0  0  0  0  0
  -90.4171   28.7766    0.5133 C   0  0  0  0  0  0  0  0  0  0  0  0
  -90.7366   27.6483   -0.2011 C   0  0  0  0  0  0  0  0  0  0  0  0
  -91.9566   27.0081   -0.0097 O   0  0  0  0  0  0  0  0  0  0  0  0
  -89.8199   27.1600   -1.1166 C   0  0  0  0  0  0  0  0  0  0  0  0
  -88.6149   27.8012   -1.2986 C   0  0  0  0  0  0  0  0  0  0  0  0
  -92.7760   27.2658   -0.5641 H   0  0  0  0  0  0  0  0  0  0  0  0
  1  2  1  0  0  0
  1  3  2  0  0  0
  3  4  1  0  0  0
  4  5  2  0  0  0
  5  6  1  0  0  0
  6  7  2  0  0  0
  6  8  1  0  0  0
  8 19  1  0  0  0
 19 20  2  0  0  0
 20 21  1  0  0  0
 21 22  2  0  0  0
 22 23  1  0  0  0
 22 24  1  0  0  0
 24 25  2  0  0  0
  8  9  1  0  0  0
  9 10  2  0  0  0
 10 11  1  0  0  0
 11 12  2  0  0  0
 12 13  1  0  0  0
 13 14  1  0  0  0
 13 15  2  0  0  0
 10 16  1  0  0  0
  7  1  1  0  0  0
 25 19  1  0  0  0
 15  9  1  0  0  0
 16  5  1  0  0  0
  2 17  1  0  0  0
 23 26  1  0  0  0
 14 18  1  0  0  0
M  END
> <minimizedAffinity>
-9.22644

> <CNNscore>
0.2758925855

> <CNNaffinity>
5.8700523376

> <CNN_VS>
1.6195039749

> <CNNaffinity_variance>
0.2485811710

$$$$
[H]Oc1c([H])c([H])c(C2([H])c3c([H])c(O[H])c([H])c([H])c3Oc3c([H])c([H])c(O[H])c([H])c32)c([H])c1[H]


 26 29  0  0  0  0  0  0  0  0999 V2000
  -85.7091   33.5011   -1.2136 C   0  0  0  0  0  0  0  0  0  0  0  0
  -86.2006   34.6261   -1.8606 O   0  0  0  0  0  0  0  0  0  0  0  0
  -84.3430   33.4154   -1.0491 C   0  0  0  0  0  0  0  0  0  0  0  0
  -83.8129   32.2984   -0.4030 C   0  0  0  0  0  0  0  0  0  0  0  0
  -84.6454   31.2995    0.0614 C   0  0  0  0  0  0  0  0  0  0  0  0
  -86.0235   31.3739   -0.0981 C   0  0  0  0  0  0  0  0  0  0  0  0
  -86.5235   32.4819   -0.7367 C   0  0  0  0  0  0  0  0  0  0  0  0
  -86.9318   30.3068    0.3961 C   0  0  0  0  0  0  0  0  0  0  0  0
  -86.1985   29.2089    1.0500 C   0  0  0  0  0  0  0  0  0  0  0  0
  -84.8369   29.1609    1.1938 C   0  0  0  0  0  0  0  0  0  0  0  0
  -84.2036   28.1115    1.8127 C   0  0  0  0  0  0  0  0  0  0  0  0
  -84.9802   27.0766    2.3014 C   0  0  0  0  0  0  0  0  0  0  0  0
  -86.3535   27.0862    2.1772 C   0  0  0  0  0  0  0  0  0  0  0  0
  -87.0890   26.0343    2.6787 O   0  0  0  0  0  0  0  0  0  0  0  0
  -86.9349   28.1555    1.5522 C   0  0  0  0  0  0  0  0  0  0  0  0
  -84.0725   30.2026    0.7004 O   0  0  0  0  0  0  0  0  0  0  0  0
  -86.4668   35.4783   -1.4134 H   0  0  0  0  0  0  0  0  0  0  0  0
  -87.4013   26.1189    3.6473 H   0  0  0  0  0  0  0  0  0  0  0  0
  -87.8769   29.8308   -0.6317 C   0  0  0  0  0  0  0  0  0  0  0  0
  -89.2360   30.0436   -0.5306 C   0  0  0  0  0  0  0  0  0  0  0  0
  -90.1321   29.6002   -1.4911 C   0  0  0  0  0  0  0  0  0  0  0  0
  -89.6820   28.9207   -2.5961 C   0  0  0  0  0  0  0  0  0  0  0  0
  -90.5729   28.4717   -3.5655 O   0  0  0  0  0  0  0  0  0  0  0  0
  -88.3229   28.6910   -2.7268 C   0  0  0  0  0  0  0  0  0  0  0  0
  -87.4493   29.1397   -1.7616 C   0  0  0  0  0  0  0  0  0  0  0  0
  -90.8215   29.0622   -4.3621 H   0  0  0  0  0  0  0  0  0  0  0  0
  1  2  1  0  0  0
  1  3  2  0  0  0
  3  4  1  0  0  0
  4  5  2  0  0  0
  5  6  1  0  0  0
  6  7  2  0  0  0
  6  8  1  0  0  0
  8 19  1  0  0  0
 19 20  2  0  0  0
 20 21  1  0  0  0
 21 22  2  0  0  0
 22 23  1  0  0  0
 22 24  1  0  0  0
 24 25  2  0  0  0
  8  9  1  0  0  0
  9 10  2  0  0  0
 10 11  1  0  0  0
 11 12  2  0  0  0
 12 13  1  0  0  0
 13 14  1  0  0  0
 13 15  2  0  0  0
 10 16  1  0  0  0
  7  1  1  0  0  0
 25 19  1  0  0  0
 15  9  1  0  0  0
 16  5  1  0  0  0
  2 17  1  0  0  0
 23 26  1  0  0  0
 14 18  1  0  0  0
M  END
> <minimizedAffinity>
-8.54527

> <CNNscore>
0.2217383981

> <CNNaffinity>
5.7088842392

> <CNN_VS>
1.2658787966

> <CNNaffinity_variance>
0.1024999395

$$$$
[H]OC([H])(c1c([H])c([H])c(OC([H])([H])[H])c([H])c1[H])C([H])([H])C(=O)N([H])C([H])([H])C([H])([H])N([H])C(=O)c1c([H])c([H])c([H])c(-c2c([H])c([H])c([H])c(C(F)(F)F)c2[H])c1[H]


 38 40  0  0  0  0  0  0  0  0999 V2000
  -86.0423   27.5173    2.0463 N   0  0  0  0  0  0  0  0  0  0  0  0
  -84.6925   27.7281    2.2181 C   0  0  0  0  0  0  0  0  0  0  0  0
  -83.8776   27.0317    2.8081 O   0  0  0  0  0  0  0  0  0  0  0  0
  -86.2203   28.0977    0.9476 H   0  0  0  0  0  0  0  0  0  0  0  0
  -84.2694   29.0481    1.5473 C   0  0  0  0  0  0  0  0  0  0  0  0
  -83.0262   29.5008    1.8130 C   0  0  0  0  0  0  0  0  0  0  0  0
  -82.6705   30.7915    1.3685 C   0  0  0  0  0  0  0  0  0  0  0  0
  -83.5472   31.5404    0.7021 C   0  0  0  0  0  0  0  0  0  0  0  0
  -84.8855   31.0944    0.3624 C   0  0  0  0  0  0  0  0  0  0  0  0
  -85.1397   29.8624    0.8277 C   0  0  0  0  0  0  0  0  0  0  0  0
  -85.6972   31.8872   -0.4862 C   0  0  0  0  0  0  0  0  0  0  0  0
  -85.3153   33.1462   -1.0299 C   0  0  0  0  0  0  0  0  0  0  0  0
  -86.1916   33.9809   -1.6931 C   0  0  0  0  0  0  0  0  0  0  0  0
  -87.5114   33.5912   -1.8348 C   0  0  0  0  0  0  0  0  0  0  0  0
  -87.9203   32.4408   -1.3964 C   0  0  0  0  0  0  0  0  0  0  0  0
  -86.9962   31.6023   -0.7381 C   0  0  0  0  0  0  0  0  0  0  0  0
  -89.3706   32.0019   -1.3928 C   0  0  0  0  0  0  0  0  0  0  0  0
  -89.3832   30.6476   -1.4150 F   0  0  0  0  0  0  0  0  0  0  0  0
  -90.0863   32.6102   -2.3556 F   0  0  0  0  0  0  0  0  0  0  0  0
  -89.8423   32.4792   -0.1528 F   0  0  0  0  0  0  0  0  0  0  0  0
  -87.2504   26.8881    2.1782 C   0  0  0  0  0  0  0  0  0  0  0  0
  -88.5872   27.4650    2.1703 C   0  0  0  0  0  0  0  0  0  0  0  0
  -90.0044   26.3814    4.2475 C   0  0  0  0  0  0  0  0  0  0  0  0
  -90.6682   26.3650    5.1524 O   0  0  0  0  0  0  0  0  0  0  0  0
  -89.3108   26.8879    3.2379 N   0  0  0  0  0  0  0  0  0  0  0  0
  -90.0852   28.0299    3.3377 H   0  0  0  0  0  0  0  0  0  0  0  0
  -89.8880   24.6895    4.0689 C   0  0  0  0  0  0  0  0  0  0  0  0
  -90.8408   24.2858    3.0907 C   0  0  0  0  0  0  0  0  0  0  0  0
  -91.7693   23.3576    3.7246 O   0  0  0  0  0  0  0  0  0  0  0  0
  -91.2803   22.8322    4.3951 H   0  0  0  0  0  0  0  0  0  0  0  0
  -91.1091   23.0938   -0.9402 C   0  0  0  0  0  0  0  0  0  0  0  0
  -91.1345   24.5333   -0.6994 C   0  0  0  0  0  0  0  0  0  0  0  0
  -90.9800   24.9726    0.5921 C   0  0  0  0  0  0  0  0  0  0  0  0
  -90.8016   24.0395    1.7032 C   0  0  0  0  0  0  0  0  0  0  0  0
  -90.7706   22.7063    1.3182 C   0  0  0  0  0  0  0  0  0  0  0  0
  -90.9245   22.3282    0.0422 C   0  0  0  0  0  0  0  0  0  0  0  0
  -92.7591   22.6895   -2.6790 C   0  0  0  0  0  0  0  0  0  0  0  0
  -91.3343   22.7775   -2.3417 O   0  0  0  0  0  0  0  0  0  0  0  0
 37 38  1  0  0  0
 38 31  1  0  0  0
 31 32  2  0  0  0
 32 33  1  0  0  0
 33 34  2  0  0  0
 34 35  1  0  0  0
 35 36  2  0  0  0
 34 28  1  0  0  0
 28 29  1  0  0  0
 28 27  1  0  0  0
 27 23  1  0  0  0
 23 24  2  0  0  0
 23 25  1  0  0  0
 25 22  1  0  0  0
 22 21  1  0  0  0
 21  1  1  0  0  0
  1  2  1  0  0  0
  2  3  2  0  0  0
  2  5  1  0  0  0
  5  6  2  0  0  0
  6  7  1  0  0  0
  7  8  2  0  0  0
  8  9  1  0  0  0
  9 10  2  0  0  0
  9 11  1  0  0  0
 11 12  2  0  0  0
 12 13  1  0  0  0
 13 14  2  0  0  0
 14 15  1  0  0  0
 15 16  2  0  0  0
 15 17  1  0  0  0
 17 18  1  0  0  0
 17 19  1  0  0  0
 17 20  1  0  0  0
 36 31  1  0  0  0
 10  5  1  0  0  0
 16 11  1  0  0  0
 29 30  1  0  0  0
 25 26  1  0  0  0
  1  4  1  0  0  0
M  END
> <minimizedAffinity>
-10.95481

> <CNNscore>
0.4025432467

> <CNNaffinity>
6.5260605812

> <CNN_VS>
2.6270215511

> <CNNaffinity_variance>
0.2269817293

$$$$
[H]OC([H])(c1c([H])c([H])c(OC([H])([H])[H])c([H])c1[H])C([H])([H])C(=O)N([H])C([H])([H])C([H])([H])N([H])C(=O)c1c([H])c([H])c([H])c(-c2c([H])c([H])c([H])c(C(F)(F)F)c2[H])c1[H]


 38 40  0  0  0  0  0  0  0  0999 V2000
  -86.0785   27.4974    2.0981 N   0  0  0  0  0  0  0  0  0  0  0  0
  -84.7243   27.6865    2.2601 C   0  0  0  0  0  0  0  0  0  0  0  0
  -83.9171   26.9795    2.8480 O   0  0  0  0  0  0  0  0  0  0  0  0
  -86.2541   28.0755    0.9979 H   0  0  0  0  0  0  0  0  0  0  0  0
  -84.2840   28.9964    1.5803 C   0  0  0  0  0  0  0  0  0  0  0  0
  -83.0330   29.4316    1.8387 C   0  0  0  0  0  0  0  0  0  0  0  0
  -82.6595   30.7142    1.3857 C   0  0  0  0  0  0  0  0  0  0  0  0
  -83.5274   31.4727    0.7185 C   0  0  0  0  0  0  0  0  0  0  0  0
  -84.8736   31.0452    0.3865 C   0  0  0  0  0  0  0  0  0  0  0  0
  -85.1447   29.8198    0.8596 C   0  0  0  0  0  0  0  0  0  0  0  0
  -85.6766   31.8455   -0.4633 C   0  0  0  0  0  0  0  0  0  0  0  0
  -85.2533   33.0614   -1.0709 C   0  0  0  0  0  0  0  0  0  0  0  0
  -86.1115   33.9140   -1.7349 C   0  0  0  0  0  0  0  0  0  0  0  0
  -87.4536   33.5876   -1.8128 C   0  0  0  0  0  0  0  0  0  0  0  0
  -87.9024   32.4776   -1.3137 C   0  0  0  0  0  0  0  0  0  0  0  0
  -86.9969   31.6185   -0.6562 C   0  0  0  0  0  0  0  0  0  0  0  0
  -89.3717   32.1144   -1.2398 C   0  0  0  0  0  0  0  0  0  0  0  0
  -89.8486   32.5958   -0.0670 F   0  0  0  0  0  0  0  0  0  0  0  0
  -89.5816   30.8049   -1.4642 F   0  0  0  0  0  0  0  0  0  0  0  0
  -89.9272   32.8218   -2.3256 F   0  0  0  0  0  0  0  0  0  0  0  0
  -87.2960   26.8888    2.2407 C   0  0  0  0  0  0  0  0  0  0  0  0
  -88.6155   27.4961    2.3394 C   0  0  0  0  0  0  0  0  0  0  0  0
  -89.8136   26.5185    4.5991 C   0  0  0  0  0  0  0  0  0  0  0  0
  -90.0440   26.4282    5.6939 O   0  0  0  0  0  0  0  0  0  0  0  0
  -89.2423   26.9772    3.4945 N   0  0  0  0  0  0  0  0  0  0  0  0
  -88.9239   28.1292    4.1915 H   0  0  0  0  0  0  0  0  0  0  0  0
  -90.9765   25.3899    4.0684 C   0  0  0  0  0  0  0  0  0  0  0  0
  -90.2932   24.3482    3.3789 C   0  0  0  0  0  0  0  0  0  0  0  0
  -90.4686   24.5664    1.9481 O   0  0  0  0  0  0  0  0  0  0  0  0
  -91.3565   24.9577    1.7961 H   0  0  0  0  0  0  0  0  0  0  0  0
  -89.5874   20.1975    3.4995 C   0  0  0  0  0  0  0  0  0  0  0  0
  -88.8167   21.0015    4.4430 C   0  0  0  0  0  0  0  0  0  0  0  0
  -89.0626   22.3514    4.4892 C   0  0  0  0  0  0  0  0  0  0  0  0
  -90.0576   22.9797    3.6217 C   0  0  0  0  0  0  0  0  0  0  0  0
  -90.7296   22.0867    2.7986 C   0  0  0  0  0  0  0  0  0  0  0  0
  -90.4537   20.7757    2.7920 C   0  0  0  0  0  0  0  0  0  0  0  0
  -90.0098   17.9575    2.6550 C   0  0  0  0  0  0  0  0  0  0  0  0
  -89.1848   18.8003    3.5270 O   0  0  0  0  0  0  0  0  0  0  0  0
 37 38  1  0  0  0
 38 31  1  0  0  0
 31 32  2  0  0  0
 32 33  1  0  0  0
 33 34  2  0  0  0
 34 35  1  0  0  0
 35 36  2  0  0  0
 34 28  1  0  0  0
 28 29  1  0  0  0
 28 27  1  0  0  0
 27 23  1  0  0  0
 23 24  2  0  0  0
 23 25  1  0  0  0
 25 22  1  0  0  0
 22 21  1  0  0  0
 21  1  1  0  0  0
  1  2  1  0  0  0
  2  3  2  0  0  0
  2  5  1  0  0  0
  5  6  2  0  0  0
  6  7  1  0  0  0
  7  8  2  0  0  0
  8  9  1  0  0  0
  9 10  2  0  0  0
  9 11  1  0  0  0
 11 12  2  0  0  0
 12 13  1  0  0  0
 13 14  2  0  0  0
 14 15  1  0  0  0
 15 16  2  0  0  0
 15 17  1  0  0  0
 17 18  1  0  0  0
 17 19  1  0  0  0
 17 20  1  0  0  0
 36 31  1  0  0  0
 10  5  1  0  0  0
 16 11  1  0  0  0
 29 30  1  0  0  0
 25 26  1  0  0  0
  1  4  1  0  0  0
M  END
> <minimizedAffinity>
-10.89449

> <CNNscore>
0.3367825150

> <CNNaffinity>
6.3358259201

> <CNN_VS>
2.1337954998

> <CNNaffinity_variance>
0.1525970250

$$$$
[H]OC([H])(c1c([H])c([H])c(OC([H])([H])[H])c([H])c1[H])C([H])([H])C(=O)N([H])C([H])([H])C([H])([H])N([H])C(=O)c1c([H])c([H])c([H])c(-c2c([H])c([H])c([H])c(C(F)(F)F)c2[H])c1[H]


 38 40  0  0  0  0  0  0  0  0999 V2000
  -85.3985   33.0987   -1.2413 N   0  0  0  0  0  0  0  0  0  0  0  0
  -84.2055   33.0586   -0.5550 C   0  0  0  0  0  0  0  0  0  0  0  0
  -83.2828   33.8619   -0.5754 O   0  0  0  0  0  0  0  0  0  0  0  0
  -86.1379   32.4777   -0.4392 H   0  0  0  0  0  0  0  0  0  0  0  0
  -84.1303   31.7863    0.3094 C   0  0  0  0  0  0  0  0  0  0  0  0
  -82.9440   31.5071    0.8888 C   0  0  0  0  0  0  0  0  0  0  0  0
  -82.7854   30.2617    1.5319 C   0  0  0  0  0  0  0  0  0  0  0  0
  -83.7886   29.3864    1.5627 C   0  0  0  0  0  0  0  0  0  0  0  0
  -85.0939   29.6444    0.9837 C   0  0  0  0  0  0  0  0  0  0  0  0
  -85.1534   30.8455    0.3897 C   0  0  0  0  0  0  0  0  0  0  0  0
  -86.1532   28.7289    1.2003 C   0  0  0  0  0  0  0  0  0  0  0  0
  -86.0099   27.4528    1.8150 C   0  0  0  0  0  0  0  0  0  0  0  0
  -87.0156   26.5083    1.8404 C   0  0  0  0  0  0  0  0  0  0  0  0
  -88.2243   26.7993    1.2336 C   0  0  0  0  0  0  0  0  0  0  0  0
  -88.4371   27.9562    0.6867 C   0  0  0  0  0  0  0  0  0  0  0  0
  -87.3950   28.9072    0.6923 C   0  0  0  0  0  0  0  0  0  0  0  0
  -89.6782   28.3010   -0.1114 C   0  0  0  0  0  0  0  0  0  0  0  0
  -90.6241   28.7091    0.7681 F   0  0  0  0  0  0  0  0  0  0  0  0
  -90.0399   27.3056   -0.9407 F   0  0  0  0  0  0  0  0  0  0  0  0
  -89.2500   29.3804   -0.9112 F   0  0  0  0  0  0  0  0  0  0  0  0
  -86.3427   33.5779   -2.1084 C   0  0  0  0  0  0  0  0  0  0  0  0
  -87.7689   33.2893   -2.1575 C   0  0  0  0  0  0  0  0  0  0  0  0
  -88.1445   31.4728   -4.1717 C   0  0  0  0  0  0  0  0  0  0  0  0
  -87.8716   30.8201   -5.0430 O   0  0  0  0  0  0  0  0  0  0  0  0
  -87.9824   32.3520   -3.1932 N   0  0  0  0  0  0  0  0  0  0  0  0
  -86.6246   32.0919   -3.2453 H   0  0  0  0  0  0  0  0  0  0  0  0
  -89.7479   30.9145   -4.0133 C   0  0  0  0  0  0  0  0  0  0  0  0
  -90.6157   32.0384   -4.1205 C   0  0  0  0  0  0  0  0  0  0  0  0
  -91.4292   32.0944   -2.9120 O   0  0  0  0  0  0  0  0  0  0  0  0
  -91.6066   31.1769   -2.6094 H   0  0  0  0  0  0  0  0  0  0  0  0
  -92.1319   33.8882   -7.5875 C   0  0  0  0  0  0  0  0  0  0  0  0
  -93.0212   32.9313   -6.9362 C   0  0  0  0  0  0  0  0  0  0  0  0
  -92.5986   32.3545   -5.7643 C   0  0  0  0  0  0  0  0  0  0  0  0
  -91.2980   32.6735   -5.1780 C   0  0  0  0  0  0  0  0  0  0  0  0
  -90.5758   33.6189   -5.8930 C   0  0  0  0  0  0  0  0  0  0  0  0
  -91.0335   34.1545   -7.0326 C   0  0  0  0  0  0  0  0  0  0  0  0
  -93.8257   35.2807   -8.6370 C   0  0  0  0  0  0  0  0  0  0  0  0
  -92.6887   34.3764   -8.8391 O   0  0  0  0  0  0  0  0  0  0  0  0
 37 38  1  0  0  0
 38 31  1  0  0  0
 31 32  2  0  0  0
 32 33  1  0  0  0
 33 34  2  0  0  0
 34 35  1  0  0  0
 35 36  2  0  0  0
 34 28  1  0  0  0
 28 29  1  0  0  0
 28 27  1  0  0  0
 27 23  1  0  0  0
 23 24  2  0  0  0
 23 25  1  0  0  0
 25 22  1  0  0  0
 22 21  1  0  0  0
 21  1  1  0  0  0
  1  2  1  0  0  0
  2  3  2  0  0  0
  2  5  1  0  0  0
  5  6  2  0  0  0
  6  7  1  0  0  0
  7  8  2  0  0  0
  8  9  1  0  0  0
  9 10  2  0  0  0
  9 11  1  0  0  0
 11 12  2  0  0  0
 12 13  1  0  0  0
 13 14  2  0  0  0
 14 15  1  0  0  0
 15 16  2  0  0  0
 15 17  1  0  0  0
 17 18  1  0  0  0
 17 19  1  0  0  0
 17 20  1  0  0  0
 36 31  1  0  0  0
 10  5  1  0  0  0
 16 11  1  0  0  0
 29 30  1  0  0  0
 25 26  1  0  0  0
  1  4  1  0  0  0
M  END
> <minimizedAffinity>
-9.75779

> <CNNscore>
0.3097102940

> <CNNaffinity>
6.3358998299

> <CNN_VS>
1.9622933865

> <CNNaffinity_variance>
0.1600919813

$$$$
[H]OC([H])(c1c([H])c([H])c(OC([H])([H])[H])c([H])c1[H])C([H])([H])C(=O)N([H])C([H])([H])C([H])([H])N([H])C(=O)c1c([H])c([H])c([H])c(-c2c([H])c([H])c([H])c(C(F)(F)F)c2[H])c1[H]


 38 40  0  0  0  0  0  0  0  0999 V2000
  -84.8641   32.0936    0.0651 N   0  0  0  0  0  0  0  0  0  0  0  0
  -83.8015   31.4211    0.6258 C   0  0  0  0  0  0  0  0  0  0  0  0
  -82.6223   31.7458    0.6613 O   0  0  0  0  0  0  0  0  0  0  0  0
  -85.7942   31.7022    0.8117 H   0  0  0  0  0  0  0  0  0  0  0  0
  -84.2783   30.0964    1.2498 C   0  0  0  0  0  0  0  0  0  0  0  0
  -83.4158   29.4577    2.0679 C   0  0  0  0  0  0  0  0  0  0  0  0
  -83.7429   28.1582    2.5086 C   0  0  0  0  0  0  0  0  0  0  0  0
  -84.8793   27.5814    2.1221 C   0  0  0  0  0  0  0  0  0  0  0  0
  -85.8568   28.2312    1.2691 C   0  0  0  0  0  0  0  0  0  0  0  0
  -85.4628   29.4572    0.8939 C   0  0  0  0  0  0  0  0  0  0  0  0
  -87.1102   27.6127    1.0372 C   0  0  0  0  0  0  0  0  0  0  0  0
  -87.2826   26.2789    0.5701 C   0  0  0  0  0  0  0  0  0  0  0  0
  -88.5015   25.7684    0.1725 C   0  0  0  0  0  0  0  0  0  0  0  0
  -89.6170   26.5856    0.2157 C   0  0  0  0  0  0  0  0  0  0  0  0
  -89.5398   27.8000    0.6649 C   0  0  0  0  0  0  0  0  0  0  0  0
  -88.2827   28.2874    1.0804 C   0  0  0  0  0  0  0  0  0  0  0  0
  -90.6815   28.7953    0.6178 C   0  0  0  0  0  0  0  0  0  0  0  0
  -91.3367   28.7152    1.8006 F   0  0  0  0  0  0  0  0  0  0  0  0
  -91.4395   28.6448   -0.4832 F   0  0  0  0  0  0  0  0  0  0  0  0
  -90.0169   30.0337    0.5051 F   0  0  0  0  0  0  0  0  0  0  0  0
  -85.5137   33.0843   -0.6200 C   0  0  0  0  0  0  0  0  0  0  0  0
  -86.9319   33.2052   -0.9262 C   0  0  0  0  0  0  0  0  0  0  0  0
  -87.7460   30.7812   -1.9056 C   0  0  0  0  0  0  0  0  0  0  0  0
  -87.6807   29.6885   -2.1533 O   0  0  0  0  0  0  0  0  0  0  0  0
  -87.3683   31.9631   -1.4393 N   0  0  0  0  0  0  0  0  0  0  0  0
  -86.4339   31.3061   -0.6587 H   0  0  0  0  0  0  0  0  0  0  0  0
  -89.3620   30.9917   -2.4077 C   0  0  0  0  0  0  0  0  0  0  0  0
  -89.3484   31.7050   -3.6401 C   0  0  0  0  0  0  0  0  0  0  0  0
  -88.9361   30.7805   -4.6893 O   0  0  0  0  0  0  0  0  0  0  0  0
  -88.2895   30.1446   -4.3121 H   0  0  0  0  0  0  0  0  0  0  0  0
  -88.6282   35.8107   -4.2442 C   0  0  0  0  0  0  0  0  0  0  0  0
  -87.5731   34.9071   -4.6924 C   0  0  0  0  0  0  0  0  0  0  0  0
  -87.7919   33.5564   -4.5801 C   0  0  0  0  0  0  0  0  0  0  0  0
  -89.0351   33.0246   -4.0245 C   0  0  0  0  0  0  0  0  0  0  0  0
  -89.9545   34.0013   -3.6678 C   0  0  0  0  0  0  0  0  0  0  0  0
  -89.6937   35.3089   -3.7988 C   0  0  0  0  0  0  0  0  0  0  0  0
  -87.9962   37.8500   -3.0817 C   0  0  0  0  0  0  0  0  0  0  0  0
  -88.2366   37.2049   -4.3769 O   0  0  0  0  0  0  0  0  0  0  0  0
 37 38  1  0  0  0
 38 31  1  0  0  0
 31 32  2  0  0  0
 32 33  1  0  0  0
 33 34  2  0  0  0
 34 35  1  0  0  0
 35 36  2  0  0  0
 34 28  1  0  0  0
 28 29  1  0  0  0
 28 27  1  0  0  0
 27 23  1  0  0  0
 23 24  2  0  0  0
 23 25  1  0  0  0
 25 22  1  0  0  0
 22 21  1  0  0  0
 21  1  1  0  0  0
  1  2  1  0  0  0
  2  3  2  0  0  0
  2  5  1  0  0  0
  5  6  2  0  0  0
  6  7  1  0  0  0
  7  8  2  0  0  0
  8  9  1  0  0  0
  9 10  2  0  0  0
  9 11  1  0  0  0
 11 12  2  0  0  0
 12 13  1  0  0  0
 13 14  2  0  0  0
 14 15  1  0  0  0
 15 16  2  0  0  0
 15 17  1  0  0  0
 17 18  1  0  0  0
 17 19  1  0  0  0
 17 20  1  0  0  0
 36 31  1  0  0  0
 10  5  1  0  0  0
 16 11  1  0  0  0
 29 30  1  0  0  0
 25 26  1  0  0  0
  1  4  1  0  0  0
M  END
> <minimizedAffinity>
-9.47735

> <CNNscore>
0.3089029789

> <CNNaffinity>
6.5617332458

> <CNN_VS>
2.0269389153

> <CNNaffinity_variance>
0.3546139598

$$$$
[H]OC([H])(c1c([H])c([H])c(OC([H])([H])[H])c([H])c1[H])C([H])([H])C(=O)N([H])C([H])([H])C([H])([H])N([H])C(=O)c1c([H])c([H])c([H])c(-c2c([H])c([H])c([H])c(C(F)(F)F)c2[H])c1[H]


 38 40  0  0  0  0  0  0  0  0999 V2000
  -85.9124   33.1346   -1.1906 N   0  0  0  0  0  0  0  0  0  0  0  0
  -84.7290   32.7946   -0.5743 C   0  0  0  0  0  0  0  0  0  0  0  0
  -83.6183   33.2853   -0.7252 O   0  0  0  0  0  0  0  0  0  0  0  0
  -86.7299   32.8213   -0.2911 H   0  0  0  0  0  0  0  0  0  0  0  0
  -84.9531   31.6247    0.4017 C   0  0  0  0  0  0  0  0  0  0  0  0
  -84.0692   31.4908    1.4126 C   0  0  0  0  0  0  0  0  0  0  0  0
  -84.1329   30.3311    2.2132 C   0  0  0  0  0  0  0  0  0  0  0  0
  -85.0478   29.3941    1.9710 C   0  0  0  0  0  0  0  0  0  0  0  0
  -86.0412   29.4987    0.9185 C   0  0  0  0  0  0  0  0  0  0  0  0
  -85.9034   30.6264    0.2055 C   0  0  0  0  0  0  0  0  0  0  0  0
  -87.0776   28.5367    0.8310 C   0  0  0  0  0  0  0  0  0  0  0  0
  -86.9348   27.2398    0.2614 C   0  0  0  0  0  0  0  0  0  0  0  0
  -88.0017   26.3993    0.0170 C   0  0  0  0  0  0  0  0  0  0  0  0
  -89.2793   26.8300    0.3271 C   0  0  0  0  0  0  0  0  0  0  0  0
  -89.4797   27.9852    0.8823 C   0  0  0  0  0  0  0  0  0  0  0  0
  -88.3668   28.8145    1.1356 C   0  0  0  0  0  0  0  0  0  0  0  0
  -90.8511   28.5815    1.1267 C   0  0  0  0  0  0  0  0  0  0  0  0
  -91.1617   28.3618    2.4267 F   0  0  0  0  0  0  0  0  0  0  0  0
  -91.7564   28.1550    0.2280 F   0  0  0  0  0  0  0  0  0  0  0  0
  -90.6437   29.9568    0.8949 F   0  0  0  0  0  0  0  0  0  0  0  0
  -86.7466   33.8059   -2.0430 C   0  0  0  0  0  0  0  0  0  0  0  0
  -88.0746   33.4301   -2.5068 C   0  0  0  0  0  0  0  0  0  0  0  0
  -87.8607   31.0178   -3.7846 C   0  0  0  0  0  0  0  0  0  0  0  0
  -87.7720   30.3068   -4.6484 O   0  0  0  0  0  0  0  0  0  0  0  0
  -87.9668   32.1760   -3.1486 N   0  0  0  0  0  0  0  0  0  0  0  0
  -87.4733   32.7933   -4.2842 H   0  0  0  0  0  0  0  0  0  0  0  0
  -87.7036   29.8441   -2.5576 C   0  0  0  0  0  0  0  0  0  0  0  0
  -88.8471   28.9973   -2.6125 C   0  0  0  0  0  0  0  0  0  0  0  0
  -88.4774   27.7903   -3.3419 O   0  0  0  0  0  0  0  0  0  0  0  0
  -87.8260   28.0299   -4.0369 H   0  0  0  0  0  0  0  0  0  0  0  0
  -93.0581   29.0804   -2.6555 C   0  0  0  0  0  0  0  0  0  0  0  0
  -92.4005   30.3366   -2.3086 C   0  0  0  0  0  0  0  0  0  0  0  0
  -91.0288   30.3774   -2.3488 C   0  0  0  0  0  0  0  0  0  0  0  0
  -90.2373   29.2055   -2.7192 C   0  0  0  0  0  0  0  0  0  0  0  0
  -90.9998   28.0937   -3.0494 C   0  0  0  0  0  0  0  0  0  0  0  0
  -92.3384   28.1049   -2.9959 C   0  0  0  0  0  0  0  0  0  0  0  0
  -95.1690   27.8751   -2.6747 C   0  0  0  0  0  0  0  0  0  0  0  0
  -94.5031   29.1728   -2.5200 O   0  0  0  0  0  0  0  0  0  0  0  0
 37 38  1  0  0  0
 38 31  1  0  0  0
 31 32  2  0  0  0
 32 33  1  0  0  0
 33 34  2  0  0  0
 34 35  1  0  0  0
 35 36  2  0  0  0
 34 28  1  0  0  0
 28 29  1  0  0  0
 28 27  1  0  0  0
 27 23  1  0  0  0
 23 24  2  0  0  0
 23 25  1  0  0  0
 25 22  1  0  0  0
 22 21  1  0  0  0
 21  1  1  0  0  0
  1  2  1  0  0  0
  2  3  2  0  0  0
  2  5  1  0  0  0
  5  6  2  0  0  0
  6  7  1  0  0  0
  7  8  2  0  0  0
  8  9  1  0  0  0
  9 10  2  0  0  0
  9 11  1  0  0  0
 11 12  2  0  0  0
 12 13  1  0  0  0
 13 14  2  0  0  0
 14 15  1  0  0  0
 15 16  2  0  0  0
 15 17  1  0  0  0
 17 18  1  0  0  0
 17 19  1  0  0  0
 17 20  1  0  0  0
 36 31  1  0  0  0
 10  5  1  0  0  0
 16 11  1  0  0  0
 29 30  1  0  0  0
 25 26  1  0  0  0
  1  4  1  0  0  0
M  END
> <minimizedAffinity>
-8.93848

> <CNNscore>
0.3029022515

> <CNNaffinity>
6.4336242676

> <CNN_VS>
1.9487593174

> <CNNaffinity_variance>
0.4935401976

$$$$
[H]OC([H])(c1c([H])c([H])c(OC([H])([H])[H])c([H])c1[H])C([H])([H])C(=O)N([H])C([H])([H])C([H])([H])N([H])C(=O)c1c([H])c([H])c([H])c(-c2c([H])c([H])c([H])c(C(F)(F)F)c2[H])c1[H]


 38 40  0  0  0  0  0  0  0  0999 V2000
  -85.3725   33.0757   -1.2174 N   0  0  0  0  0  0  0  0  0  0  0  0
  -84.1769   33.0294   -0.5359 C   0  0  0  0  0  0  0  0  0  0  0  0
  -83.2503   33.8281   -0.5600 O   0  0  0  0  0  0  0  0  0  0  0  0
  -86.1117   32.4582   -0.4124 H   0  0  0  0  0  0  0  0  0  0  0  0
  -84.1046   31.7566    0.3279 C   0  0  0  0  0  0  0  0  0  0  0  0
  -82.9140   31.4644    0.8919 C   0  0  0  0  0  0  0  0  0  0  0  0
  -82.7609   30.2174    1.5334 C   0  0  0  0  0  0  0  0  0  0  0  0
  -83.7733   29.3533    1.5776 C   0  0  0  0  0  0  0  0  0  0  0  0
  -85.0830   29.6256    1.0155 C   0  0  0  0  0  0  0  0  0  0  0  0
  -85.1369   30.8272    0.4219 C   0  0  0  0  0  0  0  0  0  0  0  0
  -86.1495   28.7220    1.2463 C   0  0  0  0  0  0  0  0  0  0  0  0
  -86.0011   27.4116    1.7825 C   0  0  0  0  0  0  0  0  0  0  0  0
  -87.0261   26.4883    1.8179 C   0  0  0  0  0  0  0  0  0  0  0  0
  -88.2610   26.8372    1.3010 C   0  0  0  0  0  0  0  0  0  0  0  0
  -88.4776   28.0263    0.8302 C   0  0  0  0  0  0  0  0  0  0  0  0
  -87.4144   28.9537    0.8238 C   0  0  0  0  0  0  0  0  0  0  0  0
  -89.7548   28.4400    0.1273 C   0  0  0  0  0  0  0  0  0  0  0  0
  -90.7049   28.6038    1.0787 F   0  0  0  0  0  0  0  0  0  0  0  0
  -90.0716   27.6063   -0.8796 F   0  0  0  0  0  0  0  0  0  0  0  0
  -89.4121   29.6816   -0.4462 F   0  0  0  0  0  0  0  0  0  0  0  0
  -86.3178   33.5598   -2.0805 C   0  0  0  0  0  0  0  0  0  0  0  0
  -87.7400   33.2544   -2.1435 C   0  0  0  0  0  0  0  0  0  0  0  0
  -88.1547   31.7549   -4.3966 C   0  0  0  0  0  0  0  0  0  0  0  0
  -88.0311   30.8939   -5.1060 O   0  0  0  0  0  0  0  0  0  0  0  0
  -87.9652   32.4953   -3.3137 N   0  0  0  0  0  0  0  0  0  0  0  0
  -87.4699   31.3674   -2.6841 H   0  0  0  0  0  0  0  0  0  0  0  0
  -89.4013   32.5336   -5.2612 C   0  0  0  0  0  0  0  0  0  0  0  0
  -90.6366   32.2211   -4.6254 C   0  0  0  0  0  0  0  0  0  0  0  0
  -90.9930   33.3408   -3.7623 O   0  0  0  0  0  0  0  0  0  0  0  0
  -90.1689   33.7329   -3.3993 H   0  0  0  0  0  0  0  0  0  0  0  0
  -92.7493   29.0632   -2.8076 C   0  0  0  0  0  0  0  0  0  0  0  0
  -92.5860   28.9693   -4.2551 C   0  0  0  0  0  0  0  0  0  0  0  0
  -91.8449   29.9392   -4.8834 C   0  0  0  0  0  0  0  0  0  0  0  0
  -91.2375   31.0419   -4.1402 C   0  0  0  0  0  0  0  0  0  0  0  0
  -91.4548   30.9836   -2.7706 C   0  0  0  0  0  0  0  0  0  0  0  0
  -92.1853   30.0137   -2.2044 C   0  0  0  0  0  0  0  0  0  0  0  0
  -93.9374   27.0029   -3.3104 C   0  0  0  0  0  0  0  0  0  0  0  0
  -93.5963   28.0002   -2.2904 O   0  0  0  0  0  0  0  0  0  0  0  0
 37 38  1  0  0  0
 38 31  1  0  0  0
 31 32  2  0  0  0
 32 33  1  0  0  0
 33 34  2  0  0  0
 34 35  1  0  0  0
 35 36  2  0  0  0
 34 28  1  0  0  0
 28 29  1  0  0  0
 28 27  1  0  0  0
 27 23  1  0  0  0
 23 24  2  0  0  0
 23 25  1  0  0  0
 25 22  1  0  0  0
 22 21  1  0  0  0
 21  1  1  0  0  0
  1  2  1  0  0  0
  2  3  2  0  0  0
  2  5  1  0  0  0
  5  6  2  0  0  0
  6  7  1  0  0  0
  7  8  2  0  0  0
  8  9  1  0  0  0
  9 10  2  0  0  0
  9 11  1  0  0  0
 11 12  2  0  0  0
 12 13  1  0  0  0
 13 14  2  0  0  0
 14 15  1  0  0  0
 15 16  2  0  0  0
 15 17  1  0  0  0
 17 18  1  0  0  0
 17 19  1  0  0  0
 17 20  1  0  0  0
 36 31  1  0  0  0
 10  5  1  0  0  0
 16 11  1  0  0  0
 29 30  1  0  0  0
 25 26  1  0  0  0
  1  4  1  0  0  0
M  END
> <minimizedAffinity>
-9.59023

> <CNNscore>
0.2966897786

> <CNNaffinity>
6.4566903114

> <CNN_VS>
1.9156340361

> <CNNaffinity_variance>
0.2929504812

$$$$
[H]OC([H])(c1c([H])c([H])c(OC([H])([H])[H])c([H])c1[H])C([H])([H])C(=O)N([H])C([H])([H])C([H])([H])N([H])C(=O)c1c([H])c([H])c([H])c(-c2c([H])c([H])c([H])c(C(F)(F)F)c2[H])c1[H]


 38 40  0  0  0  0  0  0  0  0999 V2000
  -85.5083   31.9023   -0.0867 N   0  0  0  0  0  0  0  0  0  0  0  0
  -84.2770   31.5539    0.4217 C   0  0  0  0  0  0  0  0  0  0  0  0
  -83.2127   32.1500    0.3269 O   0  0  0  0  0  0  0  0  0  0  0  0
  -86.2600   31.3715    0.7670 H   0  0  0  0  0  0  0  0  0  0  0  0
  -84.3720   30.2163    1.1789 C   0  0  0  0  0  0  0  0  0  0  0  0
  -83.2702   29.8065    1.8416 C   0  0  0  0  0  0  0  0  0  0  0  0
  -83.2586   28.5066    2.3893 C   0  0  0  0  0  0  0  0  0  0  0  0
  -84.3152   27.7076    2.2517 C   0  0  0  0  0  0  0  0  0  0  0  0
  -85.5365   28.1051    1.5764 C   0  0  0  0  0  0  0  0  0  0  0  0
  -85.4575   29.3498    1.0830 C   0  0  0  0  0  0  0  0  0  0  0  0
  -86.6699   27.2559    1.6145 C   0  0  0  0  0  0  0  0  0  0  0  0
  -87.1240   26.4595    0.5253 C   0  0  0  0  0  0  0  0  0  0  0  0
  -88.3325   25.7932    0.5277 C   0  0  0  0  0  0  0  0  0  0  0  0
  -89.1572   25.9042    1.6329 C   0  0  0  0  0  0  0  0  0  0  0  0
  -88.7909   26.5833    2.6756 C   0  0  0  0  0  0  0  0  0  0  0  0
  -87.5419   27.2390    2.6495 C   0  0  0  0  0  0  0  0  0  0  0  0
  -89.6892   26.8627    3.8636 C   0  0  0  0  0  0  0  0  0  0  0  0
  -89.3677   28.0918    4.3334 F   0  0  0  0  0  0  0  0  0  0  0  0
  -89.6611   25.8650    4.7654 F   0  0  0  0  0  0  0  0  0  0  0  0
  -90.9771   26.8754    3.2901 F   0  0  0  0  0  0  0  0  0  0  0  0
  -86.4262   32.6449   -0.7787 C   0  0  0  0  0  0  0  0  0  0  0  0
  -87.8653   32.4514   -0.8852 C   0  0  0  0  0  0  0  0  0  0  0  0
  -88.3721   31.0164   -3.1616 C   0  0  0  0  0  0  0  0  0  0  0  0
  -88.7904   30.1883   -3.7932 O   0  0  0  0  0  0  0  0  0  0  0  0
  -88.1145   31.7229   -2.0700 N   0  0  0  0  0  0  0  0  0  0  0  0
  -89.1931   31.1007   -1.4672 H   0  0  0  0  0  0  0  0  0  0  0  0
  -87.7267   31.9281   -4.4499 C   0  0  0  0  0  0  0  0  0  0  0  0
  -88.5834   33.0443   -4.6689 C   0  0  0  0  0  0  0  0  0  0  0  0
  -89.5510   32.6732   -5.6944 O   0  0  0  0  0  0  0  0  0  0  0  0
  -89.1157   32.0670   -6.3330 H   0  0  0  0  0  0  0  0  0  0  0  0
  -87.7605   37.1414   -4.1419 C   0  0  0  0  0  0  0  0  0  0  0  0
  -87.6724   36.6459   -5.5122 C   0  0  0  0  0  0  0  0  0  0  0  0
  -87.9994   35.3328   -5.7440 C   0  0  0  0  0  0  0  0  0  0  0  0
  -88.4182   34.4442   -4.6612 C   0  0  0  0  0  0  0  0  0  0  0  0
  -88.4813   35.0619   -3.4199 C   0  0  0  0  0  0  0  0  0  0  0  0
  -88.1529   36.3490   -3.2455 C   0  0  0  0  0  0  0  0  0  0  0  0
  -87.5775   39.0985   -2.7118 C   0  0  0  0  0  0  0  0  0  0  0  0
  -87.3375   38.5292   -4.0421 O   0  0  0  0  0  0  0  0  0  0  0  0
 37 38  1  0  0  0
 38 31  1  0  0  0
 31 32  2  0  0  0
 32 33  1  0  0  0
 33 34  2  0  0  0
 34 35  1  0  0  0
 35 36  2  0  0  0
 34 28  1  0  0  0
 28 29  1  0  0  0
 28 27  1  0  0  0
 27 23  1  0  0  0
 23 24  2  0  0  0
 23 25  1  0  0  0
 25 22  1  0  0  0
 22 21  1  0  0  0
 21  1  1  0  0  0
  1  2  1  0  0  0
  2  3  2  0  0  0
  2  5  1  0  0  0
  5  6  2  0  0  0
  6  7  1  0  0  0
  7  8  2  0  0  0
  8  9  1  0  0  0
  9 10  2  0  0  0
  9 11  1  0  0  0
 11 12  2  0  0  0
 12 13  1  0  0  0
 13 14  2  0  0  0
 14 15  1  0  0  0
 15 16  2  0  0  0
 15 17  1  0  0  0
 17 18  1  0  0  0
 17 19  1  0  0  0
 17 20  1  0  0  0
 36 31  1  0  0  0
 10  5  1  0  0  0
 16 11  1  0  0  0
 29 30  1  0  0  0
 25 26  1  0  0  0
  1  4  1  0  0  0
M  END
> <minimizedAffinity>
-10.13850

> <CNNscore>
0.2955916226

> <CNNaffinity>
6.4200148582

> <CNN_VS>
1.8977025747

> <CNNaffinity_variance>
0.2358112782

$$$$
[H]OC([H])(c1c([H])c([H])c(OC([H])([H])[H])c([H])c1[H])C([H])([H])C(=O)N([H])C([H])([H])C([H])([H])N([H])C(=O)c1c([H])c([H])c([H])c(-c2c([H])c([H])c([H])c(C(F)(F)F)c2[H])c1[H]


 38 40  0  0  0  0  0  0  0  0999 V2000
  -84.6187   28.7806    1.4455 N   0  0  0  0  0  0  0  0  0  0  0  0
  -83.5150   29.6023    1.3956 C   0  0  0  0  0  0  0  0  0  0  0  0
  -82.4255   29.4548    1.9326 O   0  0  0  0  0  0  0  0  0  0  0  0
  -85.1333   29.0308    0.3283 H   0  0  0  0  0  0  0  0  0  0  0  0
  -83.8122   30.8424    0.5323 C   0  0  0  0  0  0  0  0  0  0  0  0
  -82.7660   31.6318    0.2111 C   0  0  0  0  0  0  0  0  0  0  0  0
  -83.0235   32.8681   -0.4176 C   0  0  0  0  0  0  0  0  0  0  0  0
  -84.2737   33.2407   -0.6852 C   0  0  0  0  0  0  0  0  0  0  0  0
  -85.4337   32.4206   -0.3903 C   0  0  0  0  0  0  0  0  0  0  0  0
  -85.0977   31.2693    0.2103 C   0  0  0  0  0  0  0  0  0  0  0  0
  -86.7126   32.8183   -0.8525 C   0  0  0  0  0  0  0  0  0  0  0  0
  -87.9401   32.2084   -0.4677 C   0  0  0  0  0  0  0  0  0  0  0  0
  -89.1469   32.4883   -1.0757 C   0  0  0  0  0  0  0  0  0  0  0  0
  -89.1777   33.3972   -2.1183 C   0  0  0  0  0  0  0  0  0  0  0  0
  -88.1033   34.0179   -2.4968 C   0  0  0  0  0  0  0  0  0  0  0  0
  -86.8879   33.7229   -1.8439 C   0  0  0  0  0  0  0  0  0  0  0  0
  -88.0296   34.9208   -3.7115 C   0  0  0  0  0  0  0  0  0  0  0  0
  -89.1760   34.7500   -4.4124 F   0  0  0  0  0  0  0  0  0  0  0  0
  -86.8888   34.7476   -4.4028 F   0  0  0  0  0  0  0  0  0  0  0  0
  -87.9861   36.2109   -3.1442 F   0  0  0  0  0  0  0  0  0  0  0  0
  -85.3782   27.7049    1.8184 C   0  0  0  0  0  0  0  0  0  0  0  0
  -86.8012   27.4754    1.6128 C   0  0  0  0  0  0  0  0  0  0  0  0
  -87.3484   28.0862   -0.9997 C   0  0  0  0  0  0  0  0  0  0  0  0
  -87.1844   28.1352   -2.1089 O   0  0  0  0  0  0  0  0  0  0  0  0
  -87.0996   27.8009    0.2706 N   0  0  0  0  0  0  0  0  0  0  0  0
  -86.2018   26.8436   -0.1671 H   0  0  0  0  0  0  0  0  0  0  0  0
  -88.9190   28.7500   -1.0121 C   0  0  0  0  0  0  0  0  0  0  0  0
  -89.7997   27.8024   -0.4170 C   0  0  0  0  0  0  0  0  0  0  0  0
  -90.8211   27.4602   -1.3994 O   0  0  0  0  0  0  0  0  0  0  0  0
  -91.0115   28.2544   -1.9451 H   0  0  0  0  0  0  0  0  0  0  0  0
  -90.8155   26.8218    3.5513 C   0  0  0  0  0  0  0  0  0  0  0  0
  -91.0294   28.2131    3.1651 C   0  0  0  0  0  0  0  0  0  0  0  0
  -90.7785   28.5652    1.8621 C   0  0  0  0  0  0  0  0  0  0  0  0
  -90.3047   27.5896    0.8818 C   0  0  0  0  0  0  0  0  0  0  0  0
  -90.1747   26.3033    1.3866 C   0  0  0  0  0  0  0  0  0  0  0  0
  -90.4341   26.0097    2.6678 C   0  0  0  0  0  0  0  0  0  0  0  0
  -89.8402   26.5062    5.7555 C   0  0  0  0  0  0  0  0  0  0  0  0
  -91.0726   26.6094    4.9668 O   0  0  0  0  0  0  0  0  0  0  0  0
 37 38  1  0  0  0
 38 31  1  0  0  0
 31 32  2  0  0  0
 32 33  1  0  0  0
 33 34  2  0  0  0
 34 35  1  0  0  0
 35 36  2  0  0  0
 34 28  1  0  0  0
 28 29  1  0  0  0
 28 27  1  0  0  0
 27 23  1  0  0  0
 23 24  2  0  0  0
 23 25  1  0  0  0
 25 22  1  0  0  0
 22 21  1  0  0  0
 21  1  1  0  0  0
  1  2  1  0  0  0
  2  3  2  0  0  0
  2  5  1  0  0  0
  5  6  2  0  0  0
  6  7  1  0  0  0
  7  8  2  0  0  0
  8  9  1  0  0  0
  9 10  2  0  0  0
  9 11  1  0  0  0
 11 12  2  0  0  0
 12 13  1  0  0  0
 13 14  2  0  0  0
 14 15  1  0  0  0
 15 16  2  0  0  0
 15 17  1  0  0  0
 17 18  1  0  0  0
 17 19  1  0  0  0
 17 20  1  0  0  0
 36 31  1  0  0  0
 10  5  1  0  0  0
 16 11  1  0  0  0
 29 30  1  0  0  0
 25 26  1  0  0  0
  1  4  1  0  0  0
M  END
> <minimizedAffinity>
-10.36252

> <CNNscore>
0.2739084363

> <CNNaffinity>
6.3676919937

> <CNN_VS>
1.7441645861

> <CNNaffinity_variance>
0.4465132654

$$$$
[H]OC([H])(c1c([H])c([H])c(OC([H])([H])[H])c([H])c1[H])C([H])([H])C(=O)N([H])C([H])([H])C([H])([H])N([H])C(=O)c1c([H])c([H])c([H])c(-c2c([H])c([H])c([H])c(C(F)(F)F)c2[H])c1[H]


 38 40  0  0  0  0  0  0  0  0999 V2000
  -86.3785   27.3804    1.9570 N   0  0  0  0  0  0  0  0  0  0  0  0
  -85.0196   27.4988    2.1451 C   0  0  0  0  0  0  0  0  0  0  0  0
  -84.2518   26.7206    2.6946 O   0  0  0  0  0  0  0  0  0  0  0  0
  -86.5141   28.0350    0.8946 H   0  0  0  0  0  0  0  0  0  0  0  0
  -84.5138   28.8287    1.5561 C   0  0  0  0  0  0  0  0  0  0  0  0
  -83.2713   29.2220    1.9062 C   0  0  0  0  0  0  0  0  0  0  0  0
  -82.8459   30.5156    1.5381 C   0  0  0  0  0  0  0  0  0  0  0  0
  -83.6578   31.3248    0.8602 C   0  0  0  0  0  0  0  0  0  0  0  0
  -84.9910   30.9450    0.4315 C   0  0  0  0  0  0  0  0  0  0  0  0
  -85.3141   29.7051    0.8283 C   0  0  0  0  0  0  0  0  0  0  0  0
  -85.7267   31.8031   -0.4228 C   0  0  0  0  0  0  0  0  0  0  0  0
  -85.2485   33.0420   -0.9357 C   0  0  0  0  0  0  0  0  0  0  0  0
  -86.0505   33.9434   -1.6055 C   0  0  0  0  0  0  0  0  0  0  0  0
  -87.3893   33.6449   -1.7856 C   0  0  0  0  0  0  0  0  0  0  0  0
  -87.8845   32.5178   -1.3768 C   0  0  0  0  0  0  0  0  0  0  0  0
  -87.0349   31.6094   -0.7108 C   0  0  0  0  0  0  0  0  0  0  0  0
  -89.3604   32.1766   -1.4157 C   0  0  0  0  0  0  0  0  0  0  0  0
  -89.8649   32.4231   -0.1831 F   0  0  0  0  0  0  0  0  0  0  0  0
  -89.5824   30.9430   -1.9037 F   0  0  0  0  0  0  0  0  0  0  0  0
  -89.8732   33.0979   -2.3517 F   0  0  0  0  0  0  0  0  0  0  0  0
  -87.6230   26.8183    2.0473 C   0  0  0  0  0  0  0  0  0  0  0  0
  -88.7580   27.2360    2.8579 C   0  0  0  0  0  0  0  0  0  0  0  0
  -90.3768   25.0651    3.2634 C   0  0  0  0  0  0  0  0  0  0  0  0
  -91.0726   24.3799    3.8166 O   0  0  0  0  0  0  0  0  0  0  0  0
  -89.5877   26.1084    3.0494 N   0  0  0  0  0  0  0  0  0  0  0  0
  -90.2210   26.7461    4.1012 H   0  0  0  0  0  0  0  0  0  0  0  0
  -90.4597   24.2500    1.7679 C   0  0  0  0  0  0  0  0  0  0  0  0
  -91.2691   25.0263    0.8903 C   0  0  0  0  0  0  0  0  0  0  0  0
  -92.4172   24.2153    0.5033 O   0  0  0  0  0  0  0  0  0  0  0  0
  -92.1349   23.2761    0.4487 H   0  0  0  0  0  0  0  0  0  0  0  0
  -90.7452   27.5058   -2.4739 C   0  0  0  0  0  0  0  0  0  0  0  0
  -91.2523   28.1621   -1.2727 C   0  0  0  0  0  0  0  0  0  0  0  0
  -91.3739   27.4096   -0.1309 C   0  0  0  0  0  0  0  0  0  0  0  0
  -91.0171   25.9921   -0.1051 C   0  0  0  0  0  0  0  0  0  0  0  0
  -90.5246   25.5145   -1.3116 C   0  0  0  0  0  0  0  0  0  0  0  0
  -90.4235   26.2908   -2.3988 C   0  0  0  0  0  0  0  0  0  0  0  0
  -91.9120   29.2602   -3.6864 C   0  0  0  0  0  0  0  0  0  0  0  0
  -90.7188   28.4104   -3.6123 O   0  0  0  0  0  0  0  0  0  0  0  0
 37 38  1  0  0  0
 38 31  1  0  0  0
 31 32  2  0  0  0
 32 33  1  0  0  0
 33 34  2  0  0  0
 34 35  1  0  0  0
 35 36  2  0  0  0
 34 28  1  0  0  0
 28 29  1  0  0  0
 28 27  1  0  0  0
 27 23  1  0  0  0
 23 24  2  0  0  0
 23 25  1  0  0  0
 25 22  1  0  0  0
 22 21  1  0  0  0
 21  1  1  0  0  0
  1  2  1  0  0  0
  2  3  2  0  0  0
  2  5  1  0  0  0
  5  6  2  0  0  0
  6  7  1  0  0  0
  7  8  2  0  0  0
  8  9  1  0  0  0
  9 10  2  0  0  0
  9 11  1  0  0  0
 11 12  2  0  0  0
 12 13  1  0  0  0
 13 14  2  0  0  0
 14 15  1  0  0  0
 15 16  2  0  0  0
 15 17  1  0  0  0
 17 18  1  0  0  0
 17 19  1  0  0  0
 17 20  1  0  0  0
 36 31  1  0  0  0
 10  5  1  0  0  0
 16 11  1  0  0  0
 29 30  1  0  0  0
 25 26  1  0  0  0
  1  4  1  0  0  0
M  END
> <minimizedAffinity>
-9.91578

> <CNNscore>
0.2622206211

> <CNNaffinity>
6.4964218140

> <CNN_VS>
1.7034957409

> <CNNaffinity_variance>
0.2521390915

$$$$
[H]N(C(=O)[C@@]([H])(N([H])C(=O)[C@@]([H])(N([H])C(=O)[C@]([H])(C([H])([H])C([H])(C([H])([H])[H])C([H])([H])[H])C([H])(C([H])([H])[H])C([H])([H])[H])C([H])([H])C([H])(C([H])([H])[H])C([H])([H])[H])C([H])([H])C([H])(C([H])([H])[H])C([H])([H])[H])[C@]([H])(C(=O)N([H])[C@]([H])(C(=O)N([H])[C@]([H])(C(=O)N([H])[C@@]([H])(C([H])([H])C([H])(C([H])([H])[H])C([H])([H])[H])C([H])(C([H])([H])[H])C([H])([H])[H])C([H])([H])C([H])(C([H])([H])[H])C([H])([H])[H])C([H])([H])C([H])(C([H])([H])[H])C([H])([H])[H])C([H])([H])[H]


 62 61  0  0  0  0  0  0  0  0999 V2000
  -88.3424   29.1168   -3.1658 C   0  0  0  0  0  0  0  0  0  0  0  0
  -87.2423   29.2891   -2.0494 C   0  0  0  0  0  0  0  0  0  0  0  0
  -88.9337   30.4630   -3.2064 N   0  0  0  0  0  0  0  0  0  0  0  0
  -88.7825   31.3771   -4.2352 C   0  0  0  0  0  0  0  0  0  0  0  0
  -88.0043   30.8963   -5.2133 O   0  0  0  0  0  0  0  0  0  0  0  0
  -89.5294   30.6514   -2.3349 H   0  0  0  0  0  0  0  0  0  0  0  0
  -89.2324   32.6836   -4.5244 C   0  0  0  0  0  0  0  0  0  0  0  0
  -90.4921   32.7211   -5.3081 N   0  0  0  0  0  0  0  0  0  0  0  0
  -91.6760   32.2104   -4.8622 C   0  0  0  0  0  0  0  0  0  0  0  0
  -91.6145   31.6987   -3.6391 O   0  0  0  0  0  0  0  0  0  0  0  0
  -90.4343   33.1798   -6.2748 H   0  0  0  0  0  0  0  0  0  0  0  0
  -92.9939   32.1009   -5.4703 C   0  0  0  0  0  0  0  0  0  0  0  0
  -92.7675   32.2675   -6.9423 N   0  0  0  0  0  0  0  0  0  0  0  0
  -93.1910   33.4525   -7.5692 C   0  0  0  0  0  0  0  0  0  0  0  0
  -93.7583   34.2993   -6.7550 O   0  0  0  0  0  0  0  0  0  0  0  0
  -92.3092   31.4821   -7.4261 H   0  0  0  0  0  0  0  0  0  0  0  0
  -93.0633   33.8188   -8.9835 C   0  0  0  0  0  0  0  0  0  0  0  0
  -91.6628   34.0851   -9.4618 C   0  0  0  0  0  0  0  0  0  0  0  0
  -91.0575   35.3268   -8.9207 C   0  0  0  0  0  0  0  0  0  0  0  0
  -91.5511   34.0024  -10.9719 C   0  0  0  0  0  0  0  0  0  0  0  0
  -93.7082   32.8112   -9.8905 C   0  0  0  0  0  0  0  0  0  0  0  0
  -95.1658   32.9599  -10.1338 C   0  0  0  0  0  0  0  0  0  0  0  0
  -95.6222   34.3957  -10.2929 C   0  0  0  0  0  0  0  0  0  0  0  0
  -96.0456   32.1209   -9.2895 C   0  0  0  0  0  0  0  0  0  0  0  0
  -93.7718   30.8707   -5.2371 C   0  0  0  0  0  0  0  0  0  0  0  0
  -93.9177   29.9135   -6.3787 C   0  0  0  0  0  0  0  0  0  0  0  0
  -95.4075   29.6399   -6.6255 C   0  0  0  0  0  0  0  0  0  0  0  0
  -93.2587   28.5937   -6.1256 C   0  0  0  0  0  0  0  0  0  0  0  0
  -89.4854   33.6710   -3.4291 C   0  0  0  0  0  0  0  0  0  0  0  0
  -88.4729   34.6371   -3.0269 C   0  0  0  0  0  0  0  0  0  0  0  0
  -87.0631   34.1797   -3.2494 C   0  0  0  0  0  0  0  0  0  0  0  0
  -88.7092   36.0388   -3.5671 C   0  0  0  0  0  0  0  0  0  0  0  0
  -88.8508   26.9209   -2.0317 N   0  0  0  0  0  0  0  0  0  0  0  0
  -89.2326   28.0855   -2.6851 C   0  0  0  0  0  0  0  0  0  0  0  0
  -90.4845   28.2743   -2.8801 O   0  0  0  0  0  0  0  0  0  0  0  0
  -87.8684   26.6419   -1.8451 H   0  0  0  0  0  0  0  0  0  0  0  0
  -89.8704   25.9554   -1.5409 C   0  0  0  0  0  0  0  0  0  0  0  0
  -89.5139   27.0014    0.7115 N   0  0  0  0  0  0  0  0  0  0  0  0
  -90.2991   26.3277   -0.1914 C   0  0  0  0  0  0  0  0  0  0  0  0
  -91.4910   25.9539    0.1006 O   0  0  0  0  0  0  0  0  0  0  0  0
  -90.6048   27.1227    1.5750 H   0  0  0  0  0  0  0  0  0  0  0  0
  -88.7890   27.6755    1.6830 C   0  0  0  0  0  0  0  0  0  0  0  0
  -86.5737   28.9684    1.5162 N   0  0  0  0  0  0  0  0  0  0  0  0
  -87.3096   27.7926    1.3299 C   0  0  0  0  0  0  0  0  0  0  0  0
  -86.7236   26.7712    0.8430 O   0  0  0  0  0  0  0  0  0  0  0  0
  -86.8632   29.8701    1.8793 H   0  0  0  0  0  0  0  0  0  0  0  0
  -85.1265   28.9007    1.1008 C   0  0  0  0  0  0  0  0  0  0  0  0
  -84.3966   28.9418    2.3955 C   0  0  0  0  0  0  0  0  0  0  0  0
  -83.5677   27.7380    2.7158 C   0  0  0  0  0  0  0  0  0  0  0  0
  -85.0824   29.6175    3.5174 C   0  0  0  0  0  0  0  0  0  0  0  0
  -84.9407   29.9094    0.0721 C   0  0  0  0  0  0  0  0  0  0  0  0
  -85.0661   32.4445   -0.3520 C   0  0  0  0  0  0  0  0  0  0  0  0
  -84.4707   31.2818    0.3259 C   0  0  0  0  0  0  0  0  0  0  0  0
  -82.9413   31.3563    0.0222 C   0  0  0  0  0  0  0  0  0  0  0  0
  -88.9119   27.3564    3.1153 C   0  0  0  0  0  0  0  0  0  0  0  0
  -90.3653   27.2148    3.5647 C   0  0  0  0  0  0  0  0  0  0  0  0
  -90.3774   26.8042    5.0111 C   0  0  0  0  0  0  0  0  0  0  0  0
  -91.0678   28.5731    3.4848 C   0  0  0  0  0  0  0  0  0  0  0  0
  -89.4816   24.5876   -1.8552 C   0  0  0  0  0  0  0  0  0  0  0  0
  -90.3621   23.4332   -1.8523 C   0  0  0  0  0  0  0  0  0  0  0  0
  -91.7252   23.4961   -2.4267 C   0  0  0  0  0  0  0  0  0  0  0  0
  -90.4214   22.6852   -0.5211 C   0  0  0  0  0  0  0  0  0  0  0  0
 52 53  1  0  0  0
 53 54  1  0  0  0
 53 51  1  0  0  0
 51 47  1  0  0  0
 47 43  1  0  0  0
 43 44  1  0  0  0
 44 45  2  0  0  0
 44 42  1  0  0  0
 42 55  1  0  0  0
 55 56  1  0  0  0
 56 57  1  0  0  0
 56 58  1  0  0  0
 42 38  1  0  0  0
 38 39  1  0  0  0
 39 40  2  0  0  0
 39 37  1  0  0  0
 37 59  1  0  0  0
 59 60  1  0  0  0
 60 61  1  0  0  0
 60 62  1  0  0  0
 37 33  1  0  0  0
 33 34  1  0  0  0
 34 35  2  0  0  0
 34  1  1  0  0  0
  1  2  1  0  0  0
  1  3  1  0  0  0
  3  4  1  0  0  0
  4  5  2  0  0  0
  4  7  1  0  0  0
  7 29  1  0  0  0
 29 30  1  0  0  0
 30 31  1  0  0  0
 30 32  1  0  0  0
  7  8  1  0  0  0
  8  9  1  0  0  0
  9 10  2  0  0  0
  9 12  1  0  0  0
 12 25  1  0  0  0
 25 26  1  0  0  0
 26 27  1  0  0  0
 26 28  1  0  0  0
 12 13  1  0  0  0
 13 14  1  0  0  0
 14 15  2  0  0  0
 14 17  1  0  0  0
 17 21  1  0  0  0
 21 22  1  0  0  0
 22 23  1  0  0  0
 22 24  1  0  0  0
 17 18  1  0  0  0
 18 19  1  0  0  0
 18 20  1  0  0  0
 47 48  1  0  0  0
 48 49  1  0  0  0
 48 50  1  0  0  0
 43 46  1  0  0  0
 38 41  1  0  0  0
 33 36  1  0  0  0
  3  6  1  0  0  0
  8 11  1  0  0  0
 13 16  1  0  0  0
M  END
> <minimizedAffinity>
-8.07065

> <CNNscore>
0.1855322421

> <CNNaffinity>
7.6504030228

> <CNN_VS>
1.4193964005

> <CNNaffinity_variance>
0.5219482780

$$$$
[H]N(C(=O)[C@@]([H])(N([H])C(=O)[C@@]([H])(N([H])C(=O)[C@]([H])(C([H])([H])C([H])(C([H])([H])[H])C([H])([H])[H])C([H])(C([H])([H])[H])C([H])([H])[H])C([H])([H])C([H])(C([H])([H])[H])C([H])([H])[H])C([H])([H])C([H])(C([H])([H])[H])C([H])([H])[H])[C@]([H])(C(=O)N([H])[C@]([H])(C(=O)N([H])[C@]([H])(C(=O)N([H])[C@@]([H])(C([H])([H])C([H])(C([H])([H])[H])C([H])([H])[H])C([H])(C([H])([H])[H])C([H])([H])[H])C([H])([H])C([H])(C([H])([H])[H])C([H])([H])[H])C([H])([H])C([H])(C([H])([H])[H])C([H])([H])[H])C([H])([H])[H]


 62 61  0  0  0  0  0  0  0  0999 V2000
  -88.4431   33.6591   -2.6959 C   0  0  0  0  0  0  0  0  0  0  0  0
  -86.8872   33.7849   -2.9179 C   0  0  0  0  0  0  0  0  0  0  0  0
  -88.6893   32.2717   -3.1179 N   0  0  0  0  0  0  0  0  0  0  0  0
  -89.6214   31.4144   -2.5584 C   0  0  0  0  0  0  0  0  0  0  0  0
  -90.2854   31.9954   -1.5510 O   0  0  0  0  0  0  0  0  0  0  0  0
  -88.0631   32.0011   -3.9452 H   0  0  0  0  0  0  0  0  0  0  0  0
  -90.0558   30.0878   -2.7700 C   0  0  0  0  0  0  0  0  0  0  0  0
  -89.2225   29.0704   -2.0823 N   0  0  0  0  0  0  0  0  0  0  0  0
  -89.3828   28.7202   -0.7735 C   0  0  0  0  0  0  0  0  0  0  0  0
  -90.3806   29.3505   -0.1663 O   0  0  0  0  0  0  0  0  0  0  0  0
  -88.4600   28.6050   -2.6740 H   0  0  0  0  0  0  0  0  0  0  0  0
  -88.6638   27.8008    0.0962 C   0  0  0  0  0  0  0  0  0  0  0  0
  -87.7790   28.6645    0.9430 N   0  0  0  0  0  0  0  0  0  0  0  0
  -86.5574   29.1171    0.4145 C   0  0  0  0  0  0  0  0  0  0  0  0
  -86.3323   28.7079   -0.8035 O   0  0  0  0  0  0  0  0  0  0  0  0
  -88.1204   28.8778    1.8910 H   0  0  0  0  0  0  0  0  0  0  0  0
  -85.5547   29.9677    1.0642 C   0  0  0  0  0  0  0  0  0  0  0  0
  -85.1835   29.5779    2.4682 C   0  0  0  0  0  0  0  0  0  0  0  0
  -85.1402   30.7101    3.4260 C   0  0  0  0  0  0  0  0  0  0  0  0
  -83.9204   28.7399    2.5119 C   0  0  0  0  0  0  0  0  0  0  0  0
  -84.3039   30.0972    0.2441 C   0  0  0  0  0  0  0  0  0  0  0  0
  -83.8090   31.4731   -0.0162 C   0  0  0  0  0  0  0  0  0  0  0  0
  -82.5710   31.8442    0.7742 C   0  0  0  0  0  0  0  0  0  0  0  0
  -84.8462   32.5275   -0.0727 C   0  0  0  0  0  0  0  0  0  0  0  0
  -89.4464   26.9075    0.9694 C   0  0  0  0  0  0  0  0  0  0  0  0
  -89.3755   27.1419    2.4462 C   0  0  0  0  0  0  0  0  0  0  0  0
  -89.1217   25.8080    3.1611 C   0  0  0  0  0  0  0  0  0  0  0  0
  -90.6375   27.7162    3.0102 C   0  0  0  0  0  0  0  0  0  0  0  0
  -91.4512   29.6706   -2.4275 C   0  0  0  0  0  0  0  0  0  0  0  0
  -92.5614   29.9068   -3.3396 C   0  0  0  0  0  0  0  0  0  0  0  0
  -93.3498   31.1461   -3.0412 C   0  0  0  0  0  0  0  0  0  0  0  0
  -92.1827   29.8122   -4.8093 C   0  0  0  0  0  0  0  0  0  0  0  0
  -89.8623   34.4120   -4.6415 N   0  0  0  0  0  0  0  0  0  0  0  0
  -89.0441   34.6599   -3.5469 C   0  0  0  0  0  0  0  0  0  0  0  0
  -88.7976   35.8823   -3.2542 O   0  0  0  0  0  0  0  0  0  0  0  0
  -90.1074   33.4672   -4.9953 H   0  0  0  0  0  0  0  0  0  0  0  0
  -90.4613   35.5343   -5.4126 C   0  0  0  0  0  0  0  0  0  0  0  0
  -92.5721   36.3007   -4.2937 N   0  0  0  0  0  0  0  0  0  0  0  0
  -91.9141   35.5430   -5.2311 C   0  0  0  0  0  0  0  0  0  0  0  0
  -92.5450   34.7562   -6.0238 O   0  0  0  0  0  0  0  0  0  0  0  0
  -93.7986   35.9260   -4.8467 H   0  0  0  0  0  0  0  0  0  0  0  0
  -93.3143   37.0287   -3.3757 C   0  0  0  0  0  0  0  0  0  0  0  0
  -95.2126   36.5873   -1.6998 N   0  0  0  0  0  0  0  0  0  0  0  0
  -94.5443   36.2698   -2.8878 C   0  0  0  0  0  0  0  0  0  0  0  0
  -94.9772   35.3039   -3.5974 O   0  0  0  0  0  0  0  0  0  0  0  0
  -95.0166   37.3061   -1.0116 H   0  0  0  0  0  0  0  0  0  0  0  0
  -96.4026   35.7219   -1.3735 C   0  0  0  0  0  0  0  0  0  0  0  0
  -97.5189   36.6987   -1.2730 C   0  0  0  0  0  0  0  0  0  0  0  0
  -97.6403   37.4188    0.0330 C   0  0  0  0  0  0  0  0  0  0  0  0
  -98.7698   36.3446   -1.9770 C   0  0  0  0  0  0  0  0  0  0  0  0
  -96.0092   34.8749   -0.2608 C   0  0  0  0  0  0  0  0  0  0  0  0
  -96.3218   32.4847   -1.1617 C   0  0  0  0  0  0  0  0  0  0  0  0
  -96.4418   33.4785   -0.0829 C   0  0  0  0  0  0  0  0  0  0  0  0
  -97.9457   33.4649    0.3352 C   0  0  0  0  0  0  0  0  0  0  0  0
  -93.6842   38.4354   -3.6059 C   0  0  0  0  0  0  0  0  0  0  0  0
  -92.5861   39.4100   -3.1832 C   0  0  0  0  0  0  0  0  0  0  0  0
  -91.8093   39.8102   -4.4069 C   0  0  0  0  0  0  0  0  0  0  0  0
  -93.2148   40.6880   -2.6211 C   0  0  0  0  0  0  0  0  0  0  0  0
  -89.8694   35.6241   -6.7401 C   0  0  0  0  0  0  0  0  0  0  0  0
  -90.0944   36.6908   -7.6990 C   0  0  0  0  0  0  0  0  0  0  0  0
  -90.7861   36.4449   -8.9846 C   0  0  0  0  0  0  0  0  0  0  0  0
  -88.8778   37.5792   -7.9551 C   0  0  0  0  0  0  0  0  0  0  0  0
 52 53  1  0  0  0
 53 54  1  0  0  0
 53 51  1  0  0  0
 51 47  1  0  0  0
 47 43  1  0  0  0
 43 44  1  0  0  0
 44 45  2  0  0  0
 44 42  1  0  0  0
 42 55  1  0  0  0
 55 56  1  0  0  0
 56 57  1  0  0  0
 56 58  1  0  0  0
 42 38  1  0  0  0
 38 39  1  0  0  0
 39 40  2  0  0  0
 39 37  1  0  0  0
 37 59  1  0  0  0
 59 60  1  0  0  0
 60 61  1  0  0  0
 60 62  1  0  0  0
 37 33  1  0  0  0
 33 34  1  0  0  0
 34 35  2  0  0  0
 34  1  1  0  0  0
  1  2  1  0  0  0
  1  3  1  0  0  0
  3  4  1  0  0  0
  4  5  2  0  0  0
  4  7  1  0  0  0
  7 29  1  0  0  0
 29 30  1  0  0  0
 30 31  1  0  0  0
 30 32  1  0  0  0
  7  8  1  0  0  0
  8  9  1  0  0  0
  9 10  2  0  0  0
  9 12  1  0  0  0
 12 25  1  0  0  0
 25 26  1  0  0  0
 26 27  1  0  0  0
 26 28  1  0  0  0
 12 13  1  0  0  0
 13 14  1  0  0  0
 14 15  2  0  0  0
 14 17  1  0  0  0
 17 21  1  0  0  0
 21 22  1  0  0  0
 22 23  1  0  0  0
 22 24  1  0  0  0
 17 18  1  0  0  0
 18 19  1  0  0  0
 18 20  1  0  0  0
 47 48  1  0  0  0
 48 49  1  0  0  0
 48 50  1  0  0  0
 43 46  1  0  0  0
 38 41  1  0  0  0
 33 36  1  0  0  0
  3  6  1  0  0  0
  8 11  1  0  0  0
 13 16  1  0  0  0
M  END
> <minimizedAffinity>
-7.02550

> <CNNscore>
0.1538083702

> <CNNaffinity>
7.4443230629

> <CNN_VS>
1.1449991465

> <CNNaffinity_variance>
0.6671448350

$$$$
[H]N(C(=O)[C@@]([H])(N([H])C(=O)[C@@]([H])(N([H])C(=O)[C@]([H])(C([H])([H])C([H])(C([H])([H])[H])C([H])([H])[H])C([H])(C([H])([H])[H])C([H])([H])[H])C([H])([H])C([H])(C([H])([H])[H])C([H])([H])[H])C([H])([H])C([H])(C([H])([H])[H])C([H])([H])[H])[C@]([H])(C(=O)N([H])[C@]([H])(C(=O)N([H])[C@]([H])(C(=O)N([H])[C@@]([H])(C([H])([H])C([H])(C([H])([H])[H])C([H])([H])[H])C([H])(C([H])([H])[H])C([H])([H])[H])C([H])([H])C([H])(C([H])([H])[H])C([H])([H])[H])C([H])([H])C([H])(C([H])([H])[H])C([H])([H])[H])C([H])([H])[H]


 62 61  0  0  0  0  0  0  0  0999 V2000
  -88.5531   29.0994   -3.1879 C   0  0  0  0  0  0  0  0  0  0  0  0
  -87.5265   29.3611   -2.0201 C   0  0  0  0  0  0  0  0  0  0  0  0
  -89.2080   30.4115   -3.3034 N   0  0  0  0  0  0  0  0  0  0  0  0
  -88.9794   31.3388   -4.3058 C   0  0  0  0  0  0  0  0  0  0  0  0
  -88.0592   30.9075   -5.1778 O   0  0  0  0  0  0  0  0  0  0  0  0
  -89.9179   30.5615   -2.5139 H   0  0  0  0  0  0  0  0  0  0  0  0
  -89.4607   32.6206   -4.6501 C   0  0  0  0  0  0  0  0  0  0  0  0
  -90.7791   32.5997   -5.3312 N   0  0  0  0  0  0  0  0  0  0  0  0
  -91.1403   33.4814   -6.3077 C   0  0  0  0  0  0  0  0  0  0  0  0
  -90.1897   34.3516   -6.6250 O   0  0  0  0  0  0  0  0  0  0  0  0
  -91.4634   31.8386   -5.0139 H   0  0  0  0  0  0  0  0  0  0  0  0
  -92.3713   33.6674   -7.0617 C   0  0  0  0  0  0  0  0  0  0  0  0
  -93.4514   33.8044   -6.0320 N   0  0  0  0  0  0  0  0  0  0  0  0
  -94.3575   32.7455   -5.8469 C   0  0  0  0  0  0  0  0  0  0  0  0
  -94.1384   31.7280   -6.6333 O   0  0  0  0  0  0  0  0  0  0  0  0
  -93.4745   34.6915   -5.5091 H   0  0  0  0  0  0  0  0  0  0  0  0
  -95.4742   32.6707   -4.8992 C   0  0  0  0  0  0  0  0  0  0  0  0
  -95.2733   31.7468   -3.7300 C   0  0  0  0  0  0  0  0  0  0  0  0
  -93.8633   31.6194   -3.2866 C   0  0  0  0  0  0  0  0  0  0  0  0
  -95.9303   30.3979   -3.9502 C   0  0  0  0  0  0  0  0  0  0  0  0
  -95.8782   34.0244   -4.3911 C   0  0  0  0  0  0  0  0  0  0  0  0
  -96.6190   34.0670   -3.1045 C   0  0  0  0  0  0  0  0  0  0  0  0
  -98.0915   34.3920   -3.2499 C   0  0  0  0  0  0  0  0  0  0  0  0
  -95.9369   34.7700   -1.9949 C   0  0  0  0  0  0  0  0  0  0  0  0
  -92.4518   34.8010   -8.0005 C   0  0  0  0  0  0  0  0  0  0  0  0
  -92.5075   34.4894   -9.4636 C   0  0  0  0  0  0  0  0  0  0  0  0
  -93.4177   33.2748   -9.6904 C   0  0  0  0  0  0  0  0  0  0  0  0
  -91.1685   34.1567  -10.0439 C   0  0  0  0  0  0  0  0  0  0  0  0
  -89.6330   33.6832   -3.6110 C   0  0  0  0  0  0  0  0  0  0  0  0
  -88.6684   34.7636   -3.4605 C   0  0  0  0  0  0  0  0  0  0  0  0
  -87.4354   34.6088   -4.2983 C   0  0  0  0  0  0  0  0  0  0  0  0
  -89.2738   36.1527   -3.5885 C   0  0  0  0  0  0  0  0  0  0  0  0
  -89.0194   26.9351   -1.9777 N   0  0  0  0  0  0  0  0  0  0  0  0
  -89.4159   28.0381   -2.7229 C   0  0  0  0  0  0  0  0  0  0  0  0
  -90.6565   28.1351   -3.0266 O   0  0  0  0  0  0  0  0  0  0  0  0
  -88.0407   26.7302   -1.6986 H   0  0  0  0  0  0  0  0  0  0  0  0
  -90.0157   25.9313   -1.5164 C   0  0  0  0  0  0  0  0  0  0  0  0
  -89.6438   26.7566    0.8235 N   0  0  0  0  0  0  0  0  0  0  0  0
  -90.4618   26.2597   -0.1612 C   0  0  0  0  0  0  0  0  0  0  0  0
  -91.7056   26.0276    0.0507 O   0  0  0  0  0  0  0  0  0  0  0  0
  -90.7531   26.9597    1.6474 H   0  0  0  0  0  0  0  0  0  0  0  0
  -88.8890   27.2570    1.8740 C   0  0  0  0  0  0  0  0  0  0  0  0
  -86.7733   28.6771    1.5363 N   0  0  0  0  0  0  0  0  0  0  0  0
  -87.4204   27.4366    1.5027 C   0  0  0  0  0  0  0  0  0  0  0  0
  -86.7589   26.4076    1.1459 O   0  0  0  0  0  0  0  0  0  0  0  0
  -87.1297   29.5938    1.7841 H   0  0  0  0  0  0  0  0  0  0  0  0
  -85.3229   28.6636    1.1267 C   0  0  0  0  0  0  0  0  0  0  0  0
  -84.6002   28.6867    2.4258 C   0  0  0  0  0  0  0  0  0  0  0  0
  -85.1449   29.6220    3.4590 C   0  0  0  0  0  0  0  0  0  0  0  0
  -83.1333   28.5127    2.3670 C   0  0  0  0  0  0  0  0  0  0  0  0
  -85.1618   29.7077    0.1296 C   0  0  0  0  0  0  0  0  0  0  0  0
  -85.7458   32.1952   -0.1759 C   0  0  0  0  0  0  0  0  0  0  0  0
  -84.9392   31.1298    0.4406 C   0  0  0  0  0  0  0  0  0  0  0  0
  -83.4540   31.4900    0.1225 C   0  0  0  0  0  0  0  0  0  0  0  0
  -88.9706   26.6981    3.2339 C   0  0  0  0  0  0  0  0  0  0  0  0
  -90.3252   26.9501    3.8942 C   0  0  0  0  0  0  0  0  0  0  0  0
  -90.1538   26.8466    5.3844 C   0  0  0  0  0  0  0  0  0  0  0  0
  -90.7875   28.3800    3.6005 C   0  0  0  0  0  0  0  0  0  0  0  0
  -89.5886   24.5823   -1.8607 C   0  0  0  0  0  0  0  0  0  0  0  0
  -90.4355   23.4031   -1.8796 C   0  0  0  0  0  0  0  0  0  0  0  0
  -91.8099   23.4440   -2.4283 C   0  0  0  0  0  0  0  0  0  0  0  0
  -90.4492   22.6123   -0.5722 C   0  0  0  0  0  0  0  0  0  0  0  0
 52 53  1  0  0  0
 53 54  1  0  0  0
 53 51  1  0  0  0
 51 47  1  0  0  0
 47 43  1  0  0  0
 43 44  1  0  0  0
 44 45  2  0  0  0
 44 42  1  0  0  0
 42 55  1  0  0  0
 55 56  1  0  0  0
 56 57  1  0  0  0
 56 58  1  0  0  0
 42 38  1  0  0  0
 38 39  1  0  0  0
 39 40  2  0  0  0
 39 37  1  0  0  0
 37 59  1  0  0  0
 59 60  1  0  0  0
 60 61  1  0  0  0
 60 62  1  0  0  0
 37 33  1  0  0  0
 33 34  1  0  0  0
 34 35  2  0  0  0
 34  1  1  0  0  0
  1  2  1  0  0  0
  1  3  1  0  0  0
  3  4  1  0  0  0
  4  5  2  0  0  0
  4  7  1  0  0  0
  7 29  1  0  0  0
 29 30  1  0  0  0
 30 31  1  0  0  0
 30 32  1  0  0  0
  7  8  1  0  0  0
  8  9  1  0  0  0
  9 10  2  0  0  0
  9 12  1  0  0  0
 12 25  1  0  0  0
 25 26  1  0  0  0
 26 27  1  0  0  0
 26 28  1  0  0  0
 12 13  1  0  0  0
 13 14  1  0  0  0
 14 15  2  0  0  0
 14 17  1  0  0  0
 17 21  1  0  0  0
 21 22  1  0  0  0
 22 23  1  0  0  0
 22 24  1  0  0  0
 17 18  1  0  0  0
 18 19  1  0  0  0
 18 20  1  0  0  0
 47 48  1  0  0  0
 48 49  1  0  0  0
 48 50  1  0  0  0
 43 46  1  0  0  0
 38 41  1  0  0  0
 33 36  1  0  0  0
  3  6  1  0  0  0
  8 11  1  0  0  0
 13 16  1  0  0  0
M  END
> <minimizedAffinity>
-7.59611

> <CNNscore>
0.1370619684

> <CNNaffinity>
7.4715294838

> <CNN_VS>
1.0240625143

> <CNNaffinity_variance>
0.7968352437

$$$$
[H]N(C(=O)[C@@]([H])(N([H])C(=O)[C@@]([H])(N([H])C(=O)[C@]([H])(C([H])([H])C([H])(C([H])([H])[H])C([H])([H])[H])C([H])(C([H])([H])[H])C([H])([H])[H])C([H])([H])C([H])(C([H])([H])[H])C([H])([H])[H])C([H])([H])C([H])(C([H])([H])[H])C([H])([H])[H])[C@]([H])(C(=O)N([H])[C@]([H])(C(=O)N([H])[C@]([H])(C(=O)N([H])[C@@]([H])(C([H])([H])C([H])(C([H])([H])[H])C([H])([H])[H])C([H])(C([H])([H])[H])C([H])([H])[H])C([H])([H])C([H])(C([H])([H])[H])C([H])([H])[H])C([H])([H])C([H])(C([H])([H])[H])C([H])([H])[H])C([H])([H])[H]


 62 61  0  0  0  0  0  0  0  0999 V2000
  -92.9938   28.9195   -4.8213 C   0  0  0  0  0  0  0  0  0  0  0  0
  -92.6964   27.5826   -5.6025 C   0  0  0  0  0  0  0  0  0  0  0  0
  -93.0523   29.8955   -5.9202 N   0  0  0  0  0  0  0  0  0  0  0  0
  -93.9834   30.9128   -6.0435 C   0  0  0  0  0  0  0  0  0  0  0  0
  -94.8615   30.9044   -5.0325 O   0  0  0  0  0  0  0  0  0  0  0  0
  -92.2564   29.7383   -6.6214 H   0  0  0  0  0  0  0  0  0  0  0  0
  -94.2514   31.9566   -6.9555 C   0  0  0  0  0  0  0  0  0  0  0  0
  -93.0305   32.5900   -7.5128 N   0  0  0  0  0  0  0  0  0  0  0  0
  -92.7567   33.9229   -7.4131 C   0  0  0  0  0  0  0  0  0  0  0  0
  -93.6701   34.6106   -6.7389 O   0  0  0  0  0  0  0  0  0  0  0  0
  -92.3470   31.9369   -8.0174 H   0  0  0  0  0  0  0  0  0  0  0  0
  -91.6658   34.7455   -7.9149 C   0  0  0  0  0  0  0  0  0  0  0  0
  -90.6001   34.6769   -6.8635 N   0  0  0  0  0  0  0  0  0  0  0  0
  -89.9943   35.8676   -6.4256 C   0  0  0  0  0  0  0  0  0  0  0  0
  -90.4534   36.9351   -7.0185 O   0  0  0  0  0  0  0  0  0  0  0  0
  -90.3600   33.7373   -6.5167 H   0  0  0  0  0  0  0  0  0  0  0  0
  -88.9457   36.0252   -5.4125 C   0  0  0  0  0  0  0  0  0  0  0  0
  -89.4264   36.3475   -4.0247 C   0  0  0  0  0  0  0  0  0  0  0  0
  -90.9023   36.4129   -3.8885 C   0  0  0  0  0  0  0  0  0  0  0  0
  -88.7421   37.5752   -3.4554 C   0  0  0  0  0  0  0  0  0  0  0  0
  -88.0329   34.8349   -5.3515 C   0  0  0  0  0  0  0  0  0  0  0  0
  -88.1895   33.9254   -4.1878 C   0  0  0  0  0  0  0  0  0  0  0  0
  -86.9603   33.8314   -3.3073 C   0  0  0  0  0  0  0  0  0  0  0  0
  -88.8488   32.6307   -4.4702 C   0  0  0  0  0  0  0  0  0  0  0  0
  -91.0773   34.4048   -9.2227 C   0  0  0  0  0  0  0  0  0  0  0  0
  -91.8471   34.7802  -10.4504 C   0  0  0  0  0  0  0  0  0  0  0  0
  -92.1729   33.5137  -11.2534 C   0  0  0  0  0  0  0  0  0  0  0  0
  -91.0919   35.7006  -11.3577 C   0  0  0  0  0  0  0  0  0  0  0  0
  -95.0950   31.7216   -8.1686 C   0  0  0  0  0  0  0  0  0  0  0  0
  -96.1192   30.6869   -8.1942 C   0  0  0  0  0  0  0  0  0  0  0  0
  -97.3252   31.0350   -9.0133 C   0  0  0  0  0  0  0  0  0  0  0  0
  -95.5872   29.3010   -8.5236 C   0  0  0  0  0  0  0  0  0  0  0  0
  -91.8309   28.6765   -2.5953 N   0  0  0  0  0  0  0  0  0  0  0  0
  -91.8825   29.1020   -3.9164 C   0  0  0  0  0  0  0  0  0  0  0  0
  -90.8561   29.7075   -4.3861 O   0  0  0  0  0  0  0  0  0  0  0  0
  -92.6087   28.2053   -2.0945 H   0  0  0  0  0  0  0  0  0  0  0  0
  -90.6055   28.8828   -1.7775 C   0  0  0  0  0  0  0  0  0  0  0  0
  -89.6638   27.8481    0.3051 N   0  0  0  0  0  0  0  0  0  0  0  0
  -90.4645   27.7937   -0.8092 C   0  0  0  0  0  0  0  0  0  0  0  0
  -91.1511   26.7483   -1.0942 O   0  0  0  0  0  0  0  0  0  0  0  0
  -90.1881   26.6309    0.7455 H   0  0  0  0  0  0  0  0  0  0  0  0
  -88.8802   27.8178    1.4491 C   0  0  0  0  0  0  0  0  0  0  0  0
  -86.6590   29.1108    1.4098 N   0  0  0  0  0  0  0  0  0  0  0  0
  -87.3923   27.9496    1.1399 C   0  0  0  0  0  0  0  0  0  0  0  0
  -86.7962   26.9551    0.6113 O   0  0  0  0  0  0  0  0  0  0  0  0
  -86.9558   29.9917    1.8155 H   0  0  0  0  0  0  0  0  0  0  0  0
  -85.2021   29.0616    1.0274 C   0  0  0  0  0  0  0  0  0  0  0  0
  -84.5029   29.0837    2.3393 C   0  0  0  0  0  0  0  0  0  0  0  0
  -83.6460   27.8951    2.6422 C   0  0  0  0  0  0  0  0  0  0  0  0
  -85.2336   29.7041    3.4650 C   0  0  0  0  0  0  0  0  0  0  0  0
  -85.0002   30.0909    0.0223 C   0  0  0  0  0  0  0  0  0  0  0  0
  -84.9496   32.6285   -0.4022 C   0  0  0  0  0  0  0  0  0  0  0  0
  -84.4587   31.4319    0.2999 C   0  0  0  0  0  0  0  0  0  0  0  0
  -82.9153   31.4118    0.0666 C   0  0  0  0  0  0  0  0  0  0  0  0
  -89.0596   26.7973    2.4954 C   0  0  0  0  0  0  0  0  0  0  0  0
  -90.4696   26.7984    3.0839 C   0  0  0  0  0  0  0  0  0  0  0  0
  -90.4923   25.8676    4.2645 C   0  0  0  0  0  0  0  0  0  0  0  0
  -90.8092   28.1941    3.6147 C   0  0  0  0  0  0  0  0  0  0  0  0
  -90.4864   30.2746   -1.3657 C   0  0  0  0  0  0  0  0  0  0  0  0
  -89.2617   30.9348   -0.9509 C   0  0  0  0  0  0  0  0  0  0  0  0
  -89.2050   32.3981   -0.7329 C   0  0  0  0  0  0  0  0  0  0  0  0
  -88.0162   30.5022   -1.7232 C   0  0  0  0  0  0  0  0  0  0  0  0
 52 53  1  0  0  0
 53 54  1  0  0  0
 53 51  1  0  0  0
 51 47  1  0  0  0
 47 43  1  0  0  0
 43 44  1  0  0  0
 44 45  2  0  0  0
 44 42  1  0  0  0
 42 55  1  0  0  0
 55 56  1  0  0  0
 56 57  1  0  0  0
 56 58  1  0  0  0
 42 38  1  0  0  0
 38 39  1  0  0  0
 39 40  2  0  0  0
 39 37  1  0  0  0
 37 59  1  0  0  0
 59 60  1  0  0  0
 60 61  1  0  0  0
 60 62  1  0  0  0
 37 33  1  0  0  0
 33 34  1  0  0  0
 34 35  2  0  0  0
 34  1  1  0  0  0
  1  2  1  0  0  0
  1  3  1  0  0  0
  3  4  1  0  0  0
  4  5  2  0  0  0
  4  7  1  0  0  0
  7 29  1  0  0  0
 29 30  1  0  0  0
 30 31  1  0  0  0
 30 32  1  0  0  0
  7  8  1  0  0  0
  8  9  1  0  0  0
  9 10  2  0  0  0
  9 12  1  0  0  0
 12 25  1  0  0  0
 25 26  1  0  0  0
 26 27  1  0  0  0
 26 28  1  0  0  0
 12 13  1  0  0  0
 13 14  1  0  0  0
 14 15  2  0  0  0
 14 17  1  0  0  0
 17 21  1  0  0  0
 21 22  1  0  0  0
 22 23  1  0  0  0
 22 24  1  0  0  0
 17 18  1  0  0  0
 18 19  1  0  0  0
 18 20  1  0  0  0
 47 48  1  0  0  0
 48 49  1  0  0  0
 48 50  1  0  0  0
 43 46  1  0  0  0
 38 41  1  0  0  0
 33 36  1  0  0  0
  3  6  1  0  0  0
  8 11  1  0  0  0
 13 16  1  0  0  0
M  END
> <minimizedAffinity>
-7.53699

> <CNNscore>
0.1319579184

> <CNNaffinity>
7.2143163681

> <CNN_VS>
0.9519861937

> <CNNaffinity_variance>
1.1992714405

$$$$
[H]N(C(=O)[C@@]([H])(N([H])C(=O)[C@@]([H])(N([H])C(=O)[C@]([H])(C([H])([H])C([H])(C([H])([H])[H])C([H])([H])[H])C([H])(C([H])([H])[H])C([H])([H])[H])C([H])([H])C([H])(C([H])([H])[H])C([H])([H])[H])C([H])([H])C([H])(C([H])([H])[H])C([H])([H])[H])[C@]([H])(C(=O)N([H])[C@]([H])(C(=O)N([H])[C@]([H])(C(=O)N([H])[C@@]([H])(C([H])([H])C([H])(C([H])([H])[H])C([H])([H])[H])C([H])(C([H])([H])[H])C([H])([H])[H])C([H])([H])C([H])(C([H])([H])[H])C([H])([H])[H])C([H])([H])C([H])(C([H])([H])[H])C([H])([H])[H])C([H])([H])[H]


 62 61  0  0  0  0  0  0  0  0999 V2000
  -90.1798   26.1194   -0.9475 C   0  0  0  0  0  0  0  0  0  0  0  0
  -88.6343   25.8569   -1.1173 C   0  0  0  0  0  0  0  0  0  0  0  0
  -90.2732   27.5499   -1.2772 N   0  0  0  0  0  0  0  0  0  0  0  0
  -91.2169   28.1225   -2.1129 C   0  0  0  0  0  0  0  0  0  0  0  0
  -92.0525   27.2053   -2.6168 O   0  0  0  0  0  0  0  0  0  0  0  0
  -89.5204   28.1159   -0.7647 H   0  0  0  0  0  0  0  0  0  0  0  0
  -91.5298   29.4194   -2.5746 C   0  0  0  0  0  0  0  0  0  0  0  0
  -90.5780   30.4617   -2.1161 N   0  0  0  0  0  0  0  0  0  0  0  0
  -89.2532   30.4726   -2.4422 C   0  0  0  0  0  0  0  0  0  0  0  0
  -88.8877   29.4777   -3.2410 O   0  0  0  0  0  0  0  0  0  0  0  0
  -90.9850   31.2334   -1.4941 H   0  0  0  0  0  0  0  0  0  0  0  0
  -88.1544   31.3532   -2.0736 C   0  0  0  0  0  0  0  0  0  0  0  0
  -87.1977   30.4943   -1.3039 N   0  0  0  0  0  0  0  0  0  0  0  0
  -86.3554   31.0938   -0.3511 C   0  0  0  0  0  0  0  0  0  0  0  0
  -86.5154   32.3847   -0.2521 O   0  0  0  0  0  0  0  0  0  0  0  0
  -87.2058   29.4886   -1.5262 H   0  0  0  0  0  0  0  0  0  0  0  0
  -85.3598   30.4435    0.5073 C   0  0  0  0  0  0  0  0  0  0  0  0
  -84.4117   31.3688    1.2185 C   0  0  0  0  0  0  0  0  0  0  0  0
  -82.9770   31.0746    0.9814 C   0  0  0  0  0  0  0  0  0  0  0  0
  -84.7363   31.4928    2.6946 C   0  0  0  0  0  0  0  0  0  0  0  0
  -85.9914   29.5223    1.5105 C   0  0  0  0  0  0  0  0  0  0  0  0
  -85.4993   28.1214    1.5413 C   0  0  0  0  0  0  0  0  0  0  0  0
  -86.5950   27.0846    1.6807 C   0  0  0  0  0  0  0  0  0  0  0  0
  -84.3072   27.8790    2.3846 C   0  0  0  0  0  0  0  0  0  0  0  0
  -87.4233   32.0472   -3.1492 C   0  0  0  0  0  0  0  0  0  0  0  0
  -87.8829   33.4204   -3.5282 C   0  0  0  0  0  0  0  0  0  0  0  0
  -88.9015   33.9191   -2.4944 C   0  0  0  0  0  0  0  0  0  0  0  0
  -88.5490   33.4672   -4.8679 C   0  0  0  0  0  0  0  0  0  0  0  0
  -91.6654   29.7043   -4.0371 C   0  0  0  0  0  0  0  0  0  0  0  0
  -92.6119   30.6924   -4.5352 C   0  0  0  0  0  0  0  0  0  0  0  0
  -91.9842   31.9835   -4.9656 C   0  0  0  0  0  0  0  0  0  0  0  0
  -93.5756   30.1512   -5.5796 C   0  0  0  0  0  0  0  0  0  0  0  0
  -89.6593   25.1064    1.3040 N   0  0  0  0  0  0  0  0  0  0  0  0
  -90.4842   25.8005    0.4282 C   0  0  0  0  0  0  0  0  0  0  0  0
  -91.6168   26.2025    0.8713 O   0  0  0  0  0  0  0  0  0  0  0  0
  -88.7357   24.7039    1.0537 H   0  0  0  0  0  0  0  0  0  0  0  0
  -90.0680   24.8820    2.7167 C   0  0  0  0  0  0  0  0  0  0  0  0
  -90.8574   22.6428    1.9057 N   0  0  0  0  0  0  0  0  0  0  0  0
  -90.8917   23.6753    2.8105 C   0  0  0  0  0  0  0  0  0  0  0  0
  -91.6827   23.6591    3.8204 O   0  0  0  0  0  0  0  0  0  0  0  0
  -91.6953   21.8883    2.7297 H   0  0  0  0  0  0  0  0  0  0  0  0
  -90.8882   21.5597    1.0400 C   0  0  0  0  0  0  0  0  0  0  0  0
  -93.4448   21.3403    0.8891 N   0  0  0  0  0  0  0  0  0  0  0  0
  -92.1989   21.4702    0.2649 C   0  0  0  0  0  0  0  0  0  0  0  0
  -92.1507   21.5151   -1.0077 O   0  0  0  0  0  0  0  0  0  0  0  0
  -93.6795   21.2824    1.8742 H   0  0  0  0  0  0  0  0  0  0  0  0
  -94.6297   21.2568   -0.0384 C   0  0  0  0  0  0  0  0  0  0  0  0
  -94.7661   19.7976   -0.2889 C   0  0  0  0  0  0  0  0  0  0  0  0
  -94.2835   18.8996    0.8063 C   0  0  0  0  0  0  0  0  0  0  0  0
  -94.5630   19.3464   -1.6820 C   0  0  0  0  0  0  0  0  0  0  0  0
  -94.3892   22.2093   -1.1085 C   0  0  0  0  0  0  0  0  0  0  0  0
  -95.4716   24.3239   -0.1189 C   0  0  0  0  0  0  0  0  0  0  0  0
  -95.1141   23.4808   -1.2710 C   0  0  0  0  0  0  0  0  0  0  0  0
  -96.4546   23.2056   -2.0220 C   0  0  0  0  0  0  0  0  0  0  0  0
  -90.4934   20.2059    1.4639 C   0  0  0  0  0  0  0  0  0  0  0  0
  -90.6953   19.9749    2.9607 C   0  0  0  0  0  0  0  0  0  0  0  0
  -91.3948   18.6572    3.1479 C   0  0  0  0  0  0  0  0  0  0  0  0
  -89.3358   19.8564    3.6554 C   0  0  0  0  0  0  0  0  0  0  0  0
  -90.4897   26.1298    3.3379 C   0  0  0  0  0  0  0  0  0  0  0  0
  -89.7778   26.8389    4.3859 C   0  0  0  0  0  0  0  0  0  0  0  0
  -89.7057   26.3124    5.7676 C   0  0  0  0  0  0  0  0  0  0  0  0
  -90.0648   28.3387    4.4435 C   0  0  0  0  0  0  0  0  0  0  0  0
 52 53  1  0  0  0
 53 54  1  0  0  0
 53 51  1  0  0  0
 51 47  1  0  0  0
 47 43  1  0  0  0
 43 44  1  0  0  0
 44 45  2  0  0  0
 44 42  1  0  0  0
 42 55  1  0  0  0
 55 56  1  0  0  0
 56 57  1  0  0  0
 56 58  1  0  0  0
 42 38  1  0  0  0
 38 39  1  0  0  0
 39 40  2  0  0  0
 39 37  1  0  0  0
 37 59  1  0  0  0
 59 60  1  0  0  0
 60 61  1  0  0  0
 60 62  1  0  0  0
 37 33  1  0  0  0
 33 34  1  0  0  0
 34 35  2  0  0  0
 34  1  1  0  0  0
  1  2  1  0  0  0
  1  3  1  0  0  0
  3  4  1  0  0  0
  4  5  2  0  0  0
  4  7  1  0  0  0
  7 29  1  0  0  0
 29 30  1  0  0  0
 30 31  1  0  0  0
 30 32  1  0  0  0
  7  8  1  0  0  0
  8  9  1  0  0  0
  9 10  2  0  0  0
  9 12  1  0  0  0
 12 25  1  0  0  0
 25 26  1  0  0  0
 26 27  1  0  0  0
 26 28  1  0  0  0
 12 13  1  0  0  0
 13 14  1  0  0  0
 14 15  2  0  0  0
 14 17  1  0  0  0
 17 21  1  0  0  0
 21 22  1  0  0  0
 22 23  1  0  0  0
 22 24  1  0  0  0
 17 18  1  0  0  0
 18 19  1  0  0  0
 18 20  1  0  0  0
 47 48  1  0  0  0
 48 49  1  0  0  0
 48 50  1  0  0  0
 43 46  1  0  0  0
 38 41  1  0  0  0
 33 36  1  0  0  0
  3  6  1  0  0  0
  8 11  1  0  0  0
 13 16  1  0  0  0
M  END
> <minimizedAffinity>
-7.57258

> <CNNscore>
0.1283325851

> <CNNaffinity>
7.3131828308

> <CNN_VS>
0.9385196567

> <CNNaffinity_variance>
1.3816329241

$$$$
[H]N(C(=O)[C@@]([H])(N([H])C(=O)[C@@]([H])(N([H])C(=O)[C@]([H])(C([H])([H])C([H])(C([H])([H])[H])C([H])([H])[H])C([H])(C([H])([H])[H])C([H])([H])[H])C([H])([H])C([H])(C([H])([H])[H])C([H])([H])[H])C([H])([H])C([H])(C([H])([H])[H])C([H])([H])[H])[C@]([H])(C(=O)N([H])[C@]([H])(C(=O)N([H])[C@]([H])(C(=O)N([H])[C@@]([H])(C([H])([H])C([H])(C([H])([H])[H])C([H])([H])[H])C([H])(C([H])([H])[H])C([H])([H])[H])C([H])([H])C([H])(C([H])([H])[H])C([H])([H])[H])C([H])([H])C([H])(C([H])([H])[H])C([H])([H])[H])C([H])([H])[H]


 62 61  0  0  0  0  0  0  0  0999 V2000
  -90.4285   22.6388   -0.2859 C   0  0  0  0  0  0  0  0  0  0  0  0
  -90.6774   21.2494    0.4166 C   0  0  0  0  0  0  0  0  0  0  0  0
  -90.2094   23.5189    0.8721 N   0  0  0  0  0  0  0  0  0  0  0  0
  -89.6989   24.8048    0.8197 C   0  0  0  0  0  0  0  0  0  0  0  0
  -89.4024   25.1683   -0.4346 O   0  0  0  0  0  0  0  0  0  0  0  0
  -90.5198   23.0458    1.7830 H   0  0  0  0  0  0  0  0  0  0  0  0
  -89.4076   25.8339    1.7412 C   0  0  0  0  0  0  0  0  0  0  0  0
  -88.5987   26.9376    1.1669 N   0  0  0  0  0  0  0  0  0  0  0  0
  -87.3033   27.1868    1.5152 C   0  0  0  0  0  0  0  0  0  0  0  0
  -86.8094   26.3287    2.3991 O   0  0  0  0  0  0  0  0  0  0  0  0
  -89.0892   27.5562    0.4423 H   0  0  0  0  0  0  0  0  0  0  0  0
  -86.3576   28.2203    1.1201 C   0  0  0  0  0  0  0  0  0  0  0  0
  -87.1974   29.3695    0.6513 N   0  0  0  0  0  0  0  0  0  0  0  0
  -87.3471   29.5881   -0.7294 C   0  0  0  0  0  0  0  0  0  0  0  0
  -86.7039   28.7254   -1.4669 O   0  0  0  0  0  0  0  0  0  0  0  0
  -87.6229   29.9538    1.3850 H   0  0  0  0  0  0  0  0  0  0  0  0
  -88.1212   30.6402   -1.3962 C   0  0  0  0  0  0  0  0  0  0  0  0
  -89.5420   30.2848   -1.7366 C   0  0  0  0  0  0  0  0  0  0  0  0
  -90.2215   31.2623   -2.6220 C   0  0  0  0  0  0  0  0  0  0  0  0
  -90.3605   29.9631   -0.5012 C   0  0  0  0  0  0  0  0  0  0  0  0
  -88.1089   31.9282   -0.6250 C   0  0  0  0  0  0  0  0  0  0  0  0
  -87.0719   32.9248   -0.9952 C   0  0  0  0  0  0  0  0  0  0  0  0
  -86.9930   33.2116   -2.4807 C   0  0  0  0  0  0  0  0  0  0  0  0
  -85.7616   32.7657   -0.3253 C   0  0  0  0  0  0  0  0  0  0  0  0
  -85.3917   28.7047    2.1228 C   0  0  0  0  0  0  0  0  0  0  0  0
  -83.9389   28.6655    1.7643 C   0  0  0  0  0  0  0  0  0  0  0  0
  -83.1903   27.7822    2.7715 C   0  0  0  0  0  0  0  0  0  0  0  0
  -83.2920   30.0151    1.7887 C   0  0  0  0  0  0  0  0  0  0  0  0
  -90.5028   26.5557    2.4611 C   0  0  0  0  0  0  0  0  0  0  0  0
  -90.2221   27.6826    3.3395 C   0  0  0  0  0  0  0  0  0  0  0  0
  -91.1627   28.8382    3.1776 C   0  0  0  0  0  0  0  0  0  0  0  0
  -90.0399   27.2962    4.7989 C   0  0  0  0  0  0  0  0  0  0  0  0
  -91.7409   22.9445   -2.4191 N   0  0  0  0  0  0  0  0  0  0  0  0
  -91.6310   22.9222   -1.0348 C   0  0  0  0  0  0  0  0  0  0  0  0
  -92.6857   23.1689   -0.3510 O   0  0  0  0  0  0  0  0  0  0  0  0
  -90.9530   22.7929   -3.0779 H   0  0  0  0  0  0  0  0  0  0  0  0
  -93.0515   23.2035   -3.0736 C   0  0  0  0  0  0  0  0  0  0  0  0
  -94.6283   21.9250   -4.5479 N   0  0  0  0  0  0  0  0  0  0  0  0
  -93.5361   21.9811   -3.7174 C   0  0  0  0  0  0  0  0  0  0  0  0
  -92.8560   20.9326   -3.4282 O   0  0  0  0  0  0  0  0  0  0  0  0
  -94.3288   20.5965   -4.8576 H   0  0  0  0  0  0  0  0  0  0  0  0
  -95.7179   21.7787   -5.3935 C   0  0  0  0  0  0  0  0  0  0  0  0
  -94.2900   20.0362   -6.6313 N   0  0  0  0  0  0  0  0  0  0  0  0
  -95.5274   20.6477   -6.3992 C   0  0  0  0  0  0  0  0  0  0  0  0
  -96.5438   20.2469   -7.0550 O   0  0  0  0  0  0  0  0  0  0  0  0
  -93.3824   20.2196   -6.2174 H   0  0  0  0  0  0  0  0  0  0  0  0
  -94.2911   18.9428   -7.6685 C   0  0  0  0  0  0  0  0  0  0  0  0
  -94.0726   17.7101   -6.8665 C   0  0  0  0  0  0  0  0  0  0  0  0
  -92.6715   17.1855   -6.8445 C   0  0  0  0  0  0  0  0  0  0  0  0
  -95.1723   16.7220   -6.8642 C   0  0  0  0  0  0  0  0  0  0  0  0
  -93.3747   19.3607   -8.7154 C   0  0  0  0  0  0  0  0  0  0  0  0
  -95.1615   20.0507  -10.4340 C   0  0  0  0  0  0  0  0  0  0  0  0
  -93.7765   20.0782   -9.9371 C   0  0  0  0  0  0  0  0  0  0  0  0
  -92.8939   19.5845  -11.1262 C   0  0  0  0  0  0  0  0  0  0  0  0
  -96.3375   22.9251   -6.0793 C   0  0  0  0  0  0  0  0  0  0  0  0
  -95.5424   23.3800   -7.3021 C   0  0  0  0  0  0  0  0  0  0  0  0
  -96.5119   23.7121   -8.4024 C   0  0  0  0  0  0  0  0  0  0  0  0
  -94.7837   24.6698   -6.9772 C   0  0  0  0  0  0  0  0  0  0  0  0
  -93.0313   24.4720   -3.7886 C   0  0  0  0  0  0  0  0  0  0  0  0
  -93.0855   25.7895   -3.1808 C   0  0  0  0  0  0  0  0  0  0  0  0
  -94.1089   26.7839   -3.5751 C   0  0  0  0  0  0  0  0  0  0  0  0
  -91.7328   26.4913   -3.0683 C   0  0  0  0  0  0  0  0  0  0  0  0
 52 53  1  0  0  0
 53 54  1  0  0  0
 53 51  1  0  0  0
 51 47  1  0  0  0
 47 43  1  0  0  0
 43 44  1  0  0  0
 44 45  2  0  0  0
 44 42  1  0  0  0
 42 55  1  0  0  0
 55 56  1  0  0  0
 56 57  1  0  0  0
 56 58  1  0  0  0
 42 38  1  0  0  0
 38 39  1  0  0  0
 39 40  2  0  0  0
 39 37  1  0  0  0
 37 59  1  0  0  0
 59 60  1  0  0  0
 60 61  1  0  0  0
 60 62  1  0  0  0
 37 33  1  0  0  0
 33 34  1  0  0  0
 34 35  2  0  0  0
 34  1  1  0  0  0
  1  2  1  0  0  0
  1  3  1  0  0  0
  3  4  1  0  0  0
  4  5  2  0  0  0
  4  7  1  0  0  0
  7 29  1  0  0  0
 29 30  1  0  0  0
 30 31  1  0  0  0
 30 32  1  0  0  0
  7  8  1  0  0  0
  8  9  1  0  0  0
  9 10  2  0  0  0
  9 12  1  0  0  0
 12 25  1  0  0  0
 25 26  1  0  0  0
 26 27  1  0  0  0
 26 28  1  0  0  0
 12 13  1  0  0  0
 13 14  1  0  0  0
 14 15  2  0  0  0
 14 17  1  0  0  0
 17 21  1  0  0  0
 21 22  1  0  0  0
 22 23  1  0  0  0
 22 24  1  0  0  0
 17 18  1  0  0  0
 18 19  1  0  0  0
 18 20  1  0  0  0
 47 48  1  0  0  0
 48 49  1  0  0  0
 48 50  1  0  0  0
 43 46  1  0  0  0
 38 41  1  0  0  0
 33 36  1  0  0  0
  3  6  1  0  0  0
  8 11  1  0  0  0
 13 16  1  0  0  0
M  END
> <minimizedAffinity>
-7.92120

> <CNNscore>
0.1047198549

> <CNNaffinity>
7.0328035355

> <CNN_VS>
0.7364741564

> <CNNaffinity_variance>
0.4552210271

$$$$
[H]N(C(=O)[C@@]([H])(N([H])C(=O)[C@@]([H])(N([H])C(=O)[C@]([H])(C([H])([H])C([H])(C([H])([H])[H])C([H])([H])[H])C([H])(C([H])([H])[H])C([H])([H])[H])C([H])([H])C([H])(C([H])([H])[H])C([H])([H])[H])C([H])([H])C([H])(C([H])([H])[H])C([H])([H])[H])[C@]([H])(C(=O)N([H])[C@]([H])(C(=O)N([H])[C@]([H])(C(=O)N([H])[C@@]([H])(C([H])([H])C([H])(C([H])([H])[H])C([H])([H])[H])C([H])(C([H])([H])[H])C([H])([H])[H])C([H])([H])C([H])(C([H])([H])[H])C([H])([H])[H])C([H])([H])C([H])(C([H])([H])[H])C([H])([H])[H])C([H])([H])[H]


 62 61  0  0  0  0  0  0  0  0999 V2000
  -87.1853   28.1144   -0.5004 C   0  0  0  0  0  0  0  0  0  0  0  0
  -87.4820   28.1833   -2.0474 C   0  0  0  0  0  0  0  0  0  0  0  0
  -88.4156   27.4881    0.0075 N   0  0  0  0  0  0  0  0  0  0  0  0
  -88.5160   26.7359    1.1655 C   0  0  0  0  0  0  0  0  0  0  0  0
  -87.3345   26.6229    1.7857 O   0  0  0  0  0  0  0  0  0  0  0  0
  -89.2520   27.7057   -0.6272 H   0  0  0  0  0  0  0  0  0  0  0  0
  -89.5366   26.0555    1.8645 C   0  0  0  0  0  0  0  0  0  0  0  0
  -89.7771   24.6753    1.3748 N   0  0  0  0  0  0  0  0  0  0  0  0
  -90.9527   24.2643    0.8177 C   0  0  0  0  0  0  0  0  0  0  0  0
  -91.8654   25.2228    0.7192 O   0  0  0  0  0  0  0  0  0  0  0  0
  -88.9627   23.9871    1.4810 H   0  0  0  0  0  0  0  0  0  0  0  0
  -91.4113   22.9746    0.3228 C   0  0  0  0  0  0  0  0  0  0  0  0
  -91.3500   22.0517    1.5019 N   0  0  0  0  0  0  0  0  0  0  0  0
  -90.2727   21.1553    1.6130 C   0  0  0  0  0  0  0  0  0  0  0  0
  -89.4210   21.2388    0.6284 O   0  0  0  0  0  0  0  0  0  0  0  0
  -92.1235   22.1224    2.1784 H   0  0  0  0  0  0  0  0  0  0  0  0
  -90.0186   20.1797    2.6781 C   0  0  0  0  0  0  0  0  0  0  0  0
  -89.4228   20.7372    3.9412 C   0  0  0  0  0  0  0  0  0  0  0  0
  -89.4469   22.2182    4.0269 C   0  0  0  0  0  0  0  0  0  0  0  0
  -88.0454   20.1680    4.2210 C   0  0  0  0  0  0  0  0  0  0  0  0
  -91.2446   19.3850    3.0232 C   0  0  0  0  0  0  0  0  0  0  0  0
  -91.0375   17.9742    3.4387 C   0  0  0  0  0  0  0  0  0  0  0  0
  -90.2184   17.1562    2.4615 C   0  0  0  0  0  0  0  0  0  0  0  0
  -92.2304   17.2826    3.9769 C   0  0  0  0  0  0  0  0  0  0  0  0
  -92.7523   22.8950   -0.2842 C   0  0  0  0  0  0  0  0  0  0  0  0
  -92.8482   22.4094   -1.6969 C   0  0  0  0  0  0  0  0  0  0  0  0
  -91.9174   23.2450   -2.5860 C   0  0  0  0  0  0  0  0  0  0  0  0
  -94.2283   22.5252   -2.2646 C   0  0  0  0  0  0  0  0  0  0  0  0
  -89.4690   25.8813    3.3489 C   0  0  0  0  0  0  0  0  0  0  0  0
  -90.3648   26.6035    4.2413 C   0  0  0  0  0  0  0  0  0  0  0  0
  -89.8855   26.6870    5.6589 C   0  0  0  0  0  0  0  0  0  0  0  0
  -90.8063   27.9575    3.7082 C   0  0  0  0  0  0  0  0  0  0  0  0
  -85.8608   30.2541   -0.3159 N   0  0  0  0  0  0  0  0  0  0  0  0
  -86.9898   29.4814   -0.0760 C   0  0  0  0  0  0  0  0  0  0  0  0
  -87.9517   30.0212    0.5751 O   0  0  0  0  0  0  0  0  0  0  0  0
  -85.0070   29.9193   -0.8025 H   0  0  0  0  0  0  0  0  0  0  0  0
  -85.7997   31.6709    0.1334 C   0  0  0  0  0  0  0  0  0  0  0  0
  -87.5489   32.6933   -1.3463 N   0  0  0  0  0  0  0  0  0  0  0  0
  -86.2424   32.5548   -0.9465 C   0  0  0  0  0  0  0  0  0  0  0  0
  -85.2915   33.1974   -1.5195 O   0  0  0  0  0  0  0  0  0  0  0  0
  -87.1827   33.7440   -2.1904 H   0  0  0  0  0  0  0  0  0  0  0  0
  -88.8395   32.8908   -1.8142 C   0  0  0  0  0  0  0  0  0  0  0  0
  -90.6925   31.1229   -2.0333 N   0  0  0  0  0  0  0  0  0  0  0  0
  -89.4423   31.6242   -2.4136 C   0  0  0  0  0  0  0  0  0  0  0  0
  -88.7724   30.9985   -3.2987 O   0  0  0  0  0  0  0  0  0  0  0  0
  -91.3577   31.4733   -1.3526 H   0  0  0  0  0  0  0  0  0  0  0  0
  -91.1211   29.8549   -2.7261 C   0  0  0  0  0  0  0  0  0  0  0  0
  -92.2777   30.2906   -3.5525 C   0  0  0  0  0  0  0  0  0  0  0  0
  -91.9455   30.8230   -4.9109 C   0  0  0  0  0  0  0  0  0  0  0  0
  -93.4050   30.9172   -2.8299 C   0  0  0  0  0  0  0  0  0  0  0  0
  -91.2419   28.8377   -1.6961 C   0  0  0  0  0  0  0  0  0  0  0  0
  -90.7299   26.7481   -3.1081 C   0  0  0  0  0  0  0  0  0  0  0  0
  -91.3858   27.3963   -1.9611 C   0  0  0  0  0  0  0  0  0  0  0  0
  -92.9033   27.0569   -2.0982 C   0  0  0  0  0  0  0  0  0  0  0  0
  -89.1976   34.0369   -2.6665 C   0  0  0  0  0  0  0  0  0  0  0  0
  -87.9742   34.7423   -3.2498 C   0  0  0  0  0  0  0  0  0  0  0  0
  -87.7924   34.2818   -4.6695 C   0  0  0  0  0  0  0  0  0  0  0  0
  -88.2223   36.2524   -3.3032 C   0  0  0  0  0  0  0  0  0  0  0  0
  -84.5637   31.9310    0.8583 C   0  0  0  0  0  0  0  0  0  0  0  0
  -84.0169   31.1114    1.9248 C   0  0  0  0  0  0  0  0  0  0  0  0
  -83.0838   29.9965    1.6454 C   0  0  0  0  0  0  0  0  0  0  0  0
  -85.0435   30.6489    2.9578 C   0  0  0  0  0  0  0  0  0  0  0  0
 52 53  1  0  0  0
 53 54  1  0  0  0
 53 51  1  0  0  0
 51 47  1  0  0  0
 47 43  1  0  0  0
 43 44  1  0  0  0
 44 45  2  0  0  0
 44 42  1  0  0  0
 42 55  1  0  0  0
 55 56  1  0  0  0
 56 57  1  0  0  0
 56 58  1  0  0  0
 42 38  1  0  0  0
 38 39  1  0  0  0
 39 40  2  0  0  0
 39 37  1  0  0  0
 37 59  1  0  0  0
 59 60  1  0  0  0
 60 61  1  0  0  0
 60 62  1  0  0  0
 37 33  1  0  0  0
 33 34  1  0  0  0
 34 35  2  0  0  0
 34  1  1  0  0  0
  1  2  1  0  0  0
  1  3  1  0  0  0
  3  4  1  0  0  0
  4  5  2  0  0  0
  4  7  1  0  0  0
  7 29  1  0  0  0
 29 30  1  0  0  0
 30 31  1  0  0  0
 30 32  1  0  0  0
  7  8  1  0  0  0
  8  9  1  0  0  0
  9 10  2  0  0  0
  9 12  1  0  0  0
 12 25  1  0  0  0
 25 26  1  0  0  0
 26 27  1  0  0  0
 26 28  1  0  0  0
 12 13  1  0  0  0
 13 14  1  0  0  0
 14 15  2  0  0  0
 14 17  1  0  0  0
 17 21  1  0  0  0
 21 22  1  0  0  0
 22 23  1  0  0  0
 22 24  1  0  0  0
 17 18  1  0  0  0
 18 19  1  0  0  0
 18 20  1  0  0  0
 47 48  1  0  0  0
 48 49  1  0  0  0
 48 50  1  0  0  0
 43 46  1  0  0  0
 38 41  1  0  0  0
 33 36  1  0  0  0
  3  6  1  0  0  0
  8 11  1  0  0  0
 13 16  1  0  0  0
M  END
> <minimizedAffinity>
-7.76713

> <CNNscore>
0.1040637195

> <CNNaffinity>
7.3883981705

> <CNN_VS>
0.7688642144

> <CNNaffinity_variance>
1.3704560995

$$$$
[H]N(C(=O)[C@@]([H])(N([H])C(=O)[C@@]([H])(N([H])C(=O)[C@]([H])(C([H])([H])C([H])(C([H])([H])[H])C([H])([H])[H])C([H])(C([H])([H])[H])C([H])([H])[H])C([H])([H])C([H])(C([H])([H])[H])C([H])([H])[H])C([H])([H])C([H])(C([H])([H])[H])C([H])([H])[H])[C@]([H])(C(=O)N([H])[C@]([H])(C(=O)N([H])[C@]([H])(C(=O)N([H])[C@@]([H])(C([H])([H])C([H])(C([H])([H])[H])C([H])([H])[H])C([H])(C([H])([H])[H])C([H])([H])[H])C([H])([H])C([H])(C([H])([H])[H])C([H])([H])[H])C([H])([H])C([H])(C([H])([H])[H])C([H])([H])[H])C([H])([H])[H]


 62 61  0  0  0  0  0  0  0  0999 V2000
  -91.0969   25.4452   -1.6789 C   0  0  0  0  0  0  0  0  0  0  0  0
  -89.6489   24.9662   -2.0789 C   0  0  0  0  0  0  0  0  0  0  0  0
  -91.0925   26.8333   -2.1655 N   0  0  0  0  0  0  0  0  0  0  0  0
  -92.1560   27.4741   -2.7781 C   0  0  0  0  0  0  0  0  0  0  0  0
  -93.2173   26.6661   -2.8979 O   0  0  0  0  0  0  0  0  0  0  0  0
  -90.1537   27.3114   -1.9657 H   0  0  0  0  0  0  0  0  0  0  0  0
  -92.4160   28.7553   -3.3108 C   0  0  0  0  0  0  0  0  0  0  0  0
  -91.7117   29.8512   -2.5998 N   0  0  0  0  0  0  0  0  0  0  0  0
  -90.3689   30.0736   -2.6936 C   0  0  0  0  0  0  0  0  0  0  0  0
  -89.7407   29.2367   -3.5100 O   0  0  0  0  0  0  0  0  0  0  0  0
  -92.3199   30.4840   -1.9851 H   0  0  0  0  0  0  0  0  0  0  0  0
  -89.4832   31.0402   -2.0612 C   0  0  0  0  0  0  0  0  0  0  0  0
  -88.3397   30.2369   -1.5200 N   0  0  0  0  0  0  0  0  0  0  0  0
  -88.4020   29.7640   -0.1975 C   0  0  0  0  0  0  0  0  0  0  0  0
  -89.4972   30.1011    0.4259 O   0  0  0  0  0  0  0  0  0  0  0  0
  -87.5490   30.0781   -2.1608 H   0  0  0  0  0  0  0  0  0  0  0  0
  -87.4054   28.9629    0.5207 C   0  0  0  0  0  0  0  0  0  0  0  0
  -87.6522   27.4797    0.5356 C   0  0  0  0  0  0  0  0  0  0  0  0
  -87.0396   26.7694    1.6851 C   0  0  0  0  0  0  0  0  0  0  0  0
  -87.3064   26.8312   -0.7908 C   0  0  0  0  0  0  0  0  0  0  0  0
  -86.0099   29.2231    0.0320 C   0  0  0  0  0  0  0  0  0  0  0  0
  -85.1757   30.1496    0.8392 C   0  0  0  0  0  0  0  0  0  0  0  0
  -85.1299   29.8126    2.3155 C   0  0  0  0  0  0  0  0  0  0  0  0
  -85.3418   31.5893    0.5380 C   0  0  0  0  0  0  0  0  0  0  0  0
  -88.9530   32.1442   -2.8815 C   0  0  0  0  0  0  0  0  0  0  0  0
  -88.6370   33.4340   -2.1906 C   0  0  0  0  0  0  0  0  0  0  0  0
  -89.1274   34.6056   -3.0519 C   0  0  0  0  0  0  0  0  0  0  0  0
  -87.1713   33.6330   -1.9613 C   0  0  0  0  0  0  0  0  0  0  0  0
  -92.1485   29.0592   -4.7512 C   0  0  0  0  0  0  0  0  0  0  0  0
  -93.1272   28.7586   -5.7866 C   0  0  0  0  0  0  0  0  0  0  0  0
  -92.8655   27.4832   -6.5290 C   0  0  0  0  0  0  0  0  0  0  0  0
  -94.5705   28.8599   -5.3187 C   0  0  0  0  0  0  0  0  0  0  0  0
  -90.1410   24.9002    0.5918 N   0  0  0  0  0  0  0  0  0  0  0  0
  -91.1717   25.3142   -0.2421 C   0  0  0  0  0  0  0  0  0  0  0  0
  -92.2921   25.6137    0.3018 O   0  0  0  0  0  0  0  0  0  0  0  0
  -89.2012   24.6013    0.2674 H   0  0  0  0  0  0  0  0  0  0  0  0
  -90.3291   24.8523    2.0666 C   0  0  0  0  0  0  0  0  0  0  0  0
  -91.2071   22.5408    1.6416 N   0  0  0  0  0  0  0  0  0  0  0  0
  -91.0927   23.6578    2.4322 C   0  0  0  0  0  0  0  0  0  0  0  0
  -91.6774   23.7390    3.5711 O   0  0  0  0  0  0  0  0  0  0  0  0
  -91.8566   21.8686    2.6794 H   0  0  0  0  0  0  0  0  0  0  0  0
  -91.3769   21.3769    0.9067 C   0  0  0  0  0  0  0  0  0  0  0  0
  -93.2106   20.1613   -0.4227 N   0  0  0  0  0  0  0  0  0  0  0  0
  -92.8217   21.1746    0.4611 C   0  0  0  0  0  0  0  0  0  0  0  0
  -93.7094   21.9673    0.9163 O   0  0  0  0  0  0  0  0  0  0  0  0
  -92.6559   19.4501   -0.8865 H   0  0  0  0  0  0  0  0  0  0  0  0
  -94.6796   20.1207   -0.7572 C   0  0  0  0  0  0  0  0  0  0  0  0
  -95.0599   18.7149   -0.4582 C   0  0  0  0  0  0  0  0  0  0  0  0
  -94.8681   18.2742    0.9588 C   0  0  0  0  0  0  0  0  0  0  0  0
  -94.8034   17.7221   -1.5232 C   0  0  0  0  0  0  0  0  0  0  0  0
  -94.8212   20.6985   -2.0825 C   0  0  0  0  0  0  0  0  0  0  0  0
  -93.2987   22.4332   -3.2205 C   0  0  0  0  0  0  0  0  0  0  0  0
  -93.6948   21.0385   -2.9681 C   0  0  0  0  0  0  0  0  0  0  0  0
  -93.9525   20.4139   -4.3754 C   0  0  0  0  0  0  0  0  0  0  0  0
  -90.8306   20.0832    1.3497 C   0  0  0  0  0  0  0  0  0  0  0  0
  -90.9452   19.8815    2.8599 C   0  0  0  0  0  0  0  0  0  0  0  0
  -91.5784   18.5415    3.1135 C   0  0  0  0  0  0  0  0  0  0  0  0
  -89.5480   19.8356    3.4847 C   0  0  0  0  0  0  0  0  0  0  0  0
  -90.6920   26.1639    2.5850 C   0  0  0  0  0  0  0  0  0  0  0  0
  -90.0503   26.8447    3.6953 C   0  0  0  0  0  0  0  0  0  0  0  0
  -89.8752   26.1884    5.0107 C   0  0  0  0  0  0  0  0  0  0  0  0
  -90.5264   28.2794    3.9189 C   0  0  0  0  0  0  0  0  0  0  0  0
 52 53  1  0  0  0
 53 54  1  0  0  0
 53 51  1  0  0  0
 51 47  1  0  0  0
 47 43  1  0  0  0
 43 44  1  0  0  0
 44 45  2  0  0  0
 44 42  1  0  0  0
 42 55  1  0  0  0
 55 56  1  0  0  0
 56 57  1  0  0  0
 56 58  1  0  0  0
 42 38  1  0  0  0
 38 39  1  0  0  0
 39 40  2  0  0  0
 39 37  1  0  0  0
 37 59  1  0  0  0
 59 60  1  0  0  0
 60 61  1  0  0  0
 60 62  1  0  0  0
 37 33  1  0  0  0
 33 34  1  0  0  0
 34 35  2  0  0  0
 34  1  1  0  0  0
  1  2  1  0  0  0
  1  3  1  0  0  0
  3  4  1  0  0  0
  4  5  2  0  0  0
  4  7  1  0  0  0
  7 29  1  0  0  0
 29 30  1  0  0  0
 30 31  1  0  0  0
 30 32  1  0  0  0
  7  8  1  0  0  0
  8  9  1  0  0  0
  9 10  2  0  0  0
  9 12  1  0  0  0
 12 25  1  0  0  0
 25 26  1  0  0  0
 26 27  1  0  0  0
 26 28  1  0  0  0
 12 13  1  0  0  0
 13 14  1  0  0  0
 14 15  2  0  0  0
 14 17  1  0  0  0
 17 21  1  0  0  0
 21 22  1  0  0  0
 22 23  1  0  0  0
 22 24  1  0  0  0
 17 18  1  0  0  0
 18 19  1  0  0  0
 18 20  1  0  0  0
 47 48  1  0  0  0
 48 49  1  0  0  0
 48 50  1  0  0  0
 43 46  1  0  0  0
 38 41  1  0  0  0
 33 36  1  0  0  0
  3  6  1  0  0  0
  8 11  1  0  0  0
 13 16  1  0  0  0
M  END
> <minimizedAffinity>
-6.85388

> <CNNscore>
0.0954743400

> <CNNaffinity>
7.2754821777

> <CNN_VS>
0.6946218610

> <CNNaffinity_variance>
1.0820146799

$$$$
[H]N(C(=O)[C@@]([H])(N([H])C(=O)[C@@]([H])(N([H])C(=O)[C@]([H])(C([H])([H])C([H])(C([H])([H])[H])C([H])([H])[H])C([H])(C([H])([H])[H])C([H])([H])[H])C([H])([H])C([H])(C([H])([H])[H])C([H])([H])[H])C([H])([H])C([H])(C([H])([H])[H])C([H])([H])[H])[C@]([H])(C(=O)N([H])[C@]([H])(C(=O)N([H])[C@]([H])(C(=O)N([H])[C@@]([H])(C([H])([H])C([H])(C([H])([H])[H])C([H])([H])[H])C([H])(C([H])([H])[H])C([H])([H])[H])C([H])([H])C([H])(C([H])([H])[H])C([H])([H])[H])C([H])([H])C([H])(C([H])([H])[H])C([H])([H])[H])C([H])([H])[H]


 62 61  0  0  0  0  0  0  0  0999 V2000
  -92.3286   29.8101   -2.7265 C   0  0  0  0  0  0  0  0  0  0  0  0
  -92.2938   29.0948   -1.3218 C   0  0  0  0  0  0  0  0  0  0  0  0
  -92.7802   28.7177   -3.6019 N   0  0  0  0  0  0  0  0  0  0  0  0
  -94.0710   28.5453   -4.0719 C   0  0  0  0  0  0  0  0  0  0  0  0
  -94.8938   29.4999   -3.6189 O   0  0  0  0  0  0  0  0  0  0  0  0
  -91.9685   28.0659   -3.8590 H   0  0  0  0  0  0  0  0  0  0  0  0
  -94.7488   27.6269   -4.9029 C   0  0  0  0  0  0  0  0  0  0  0  0
  -95.0258   26.3234   -4.2499 N   0  0  0  0  0  0  0  0  0  0  0  0
  -94.5496   25.1305   -4.7097 C   0  0  0  0  0  0  0  0  0  0  0  0
  -93.7807   25.2373   -5.7863 O   0  0  0  0  0  0  0  0  0  0  0  0
  -95.6388   26.3551   -3.3715 H   0  0  0  0  0  0  0  0  0  0  0  0
  -94.7312   23.7577   -4.2614 C   0  0  0  0  0  0  0  0  0  0  0  0
  -94.5962   22.9158   -5.4939 N   0  0  0  0  0  0  0  0  0  0  0  0
  -95.6758   22.1076   -5.8911 C   0  0  0  0  0  0  0  0  0  0  0  0
  -96.7092   22.1913   -5.0993 O   0  0  0  0  0  0  0  0  0  0  0  0
  -93.6952   22.9724   -5.9896 H   0  0  0  0  0  0  0  0  0  0  0  0
  -95.7560   21.2202   -7.0560 C   0  0  0  0  0  0  0  0  0  0  0  0
  -95.4917   21.8690   -8.3865 C   0  0  0  0  0  0  0  0  0  0  0  0
  -96.4679   22.9228   -8.7576 C   0  0  0  0  0  0  0  0  0  0  0  0
  -95.3016   20.8474   -9.4909 C   0  0  0  0  0  0  0  0  0  0  0  0
  -94.8712   20.0159   -6.9131 C   0  0  0  0  0  0  0  0  0  0  0  0
  -95.5401   18.7166   -6.6481 C   0  0  0  0  0  0  0  0  0  0  0  0
  -94.8126   17.5185   -7.2229 C   0  0  0  0  0  0  0  0  0  0  0  0
  -97.0077   18.7001   -6.8403 C   0  0  0  0  0  0  0  0  0  0  0  0
  -93.8282   23.2371   -3.2191 C   0  0  0  0  0  0  0  0  0  0  0  0
  -92.7880   24.1651   -2.6736 C   0  0  0  0  0  0  0  0  0  0  0  0
  -91.4808   23.3915   -2.4550 C   0  0  0  0  0  0  0  0  0  0  0  0
  -93.1725   24.7699   -1.3595 C   0  0  0  0  0  0  0  0  0  0  0  0
  -96.0617   27.9782   -5.5286 C   0  0  0  0  0  0  0  0  0  0  0  0
  -96.1584   28.3606   -6.9303 C   0  0  0  0  0  0  0  0  0  0  0  0
  -94.8832   28.2002   -7.7012 C   0  0  0  0  0  0  0  0  0  0  0  0
  -97.3446   27.7458   -7.6565 C   0  0  0  0  0  0  0  0  0  0  0  0
  -90.0341   30.5723   -2.0046 N   0  0  0  0  0  0  0  0  0  0  0  0
  -90.9771   30.2566   -2.9742 C   0  0  0  0  0  0  0  0  0  0  0  0
  -90.6259   30.3630   -4.2015 O   0  0  0  0  0  0  0  0  0  0  0  0
  -90.2091   30.5562   -0.9814 H   0  0  0  0  0  0  0  0  0  0  0  0
  -88.6548   30.9760   -2.3885 C   0  0  0  0  0  0  0  0  0  0  0  0
  -87.0153   29.4722   -1.2286 N   0  0  0  0  0  0  0  0  0  0  0  0
  -87.7623   29.8170   -2.3282 C   0  0  0  0  0  0  0  0  0  0  0  0
  -87.7151   29.1360   -3.4142 O   0  0  0  0  0  0  0  0  0  0  0  0
  -86.6410   28.2801   -1.8525 H   0  0  0  0  0  0  0  0  0  0  0  0
  -86.2271   29.0550   -0.1665 C   0  0  0  0  0  0  0  0  0  0  0  0
  -88.2654   27.7706    0.7297 N   0  0  0  0  0  0  0  0  0  0  0  0
  -86.8784   27.9342    0.6376 C   0  0  0  0  0  0  0  0  0  0  0  0
  -86.1206   27.1140    1.2514 O   0  0  0  0  0  0  0  0  0  0  0  0
  -89.0165   28.3174    0.3228 H   0  0  0  0  0  0  0  0  0  0  0  0
  -88.7273   26.6128    1.5768 C   0  0  0  0  0  0  0  0  0  0  0  0
  -89.8139   26.0058    0.7635 C   0  0  0  0  0  0  0  0  0  0  0  0
  -90.2193   24.6178    1.1481 C   0  0  0  0  0  0  0  0  0  0  0  0
  -89.8311   26.3491   -0.6744 C   0  0  0  0  0  0  0  0  0  0  0  0
  -88.9572   27.1386    2.9113 C   0  0  0  0  0  0  0  0  0  0  0  0
  -91.0698   28.5953    3.1034 C   0  0  0  0  0  0  0  0  0  0  0  0
  -90.2872   27.4082    3.4831 C   0  0  0  0  0  0  0  0  0  0  0  0
  -90.1665   27.4648    5.0384 C   0  0  0  0  0  0  0  0  0  0  0  0
  -85.6007   30.0068    0.7662 C   0  0  0  0  0  0  0  0  0  0  0  0
  -84.0743   29.9740    0.7045 C   0  0  0  0  0  0  0  0  0  0  0  0
  -83.5723   31.3882    0.6094 C   0  0  0  0  0  0  0  0  0  0  0  0
  -83.5148   29.3929    2.0061 C   0  0  0  0  0  0  0  0  0  0  0  0
  -88.2910   32.2382   -1.7596 C   0  0  0  0  0  0  0  0  0  0  0  0
  -87.0195   32.9236   -1.9061 C   0  0  0  0  0  0  0  0  0  0  0  0
  -86.2568   33.4026   -0.7312 C   0  0  0  0  0  0  0  0  0  0  0  0
  -87.0061   34.0107   -2.9800 C   0  0  0  0  0  0  0  0  0  0  0  0
 52 53  1  0  0  0
 53 54  1  0  0  0
 53 51  1  0  0  0
 51 47  1  0  0  0
 47 43  1  0  0  0
 43 44  1  0  0  0
 44 45  2  0  0  0
 44 42  1  0  0  0
 42 55  1  0  0  0
 55 56  1  0  0  0
 56 57  1  0  0  0
 56 58  1  0  0  0
 42 38  1  0  0  0
 38 39  1  0  0  0
 39 40  2  0  0  0
 39 37  1  0  0  0
 37 59  1  0  0  0
 59 60  1  0  0  0
 60 61  1  0  0  0
 60 62  1  0  0  0
 37 33  1  0  0  0
 33 34  1  0  0  0
 34 35  2  0  0  0
 34  1  1  0  0  0
  1  2  1  0  0  0
  1  3  1  0  0  0
  3  4  1  0  0  0
  4  5  2  0  0  0
  4  7  1  0  0  0
  7 29  1  0  0  0
 29 30  1  0  0  0
 30 31  1  0  0  0
 30 32  1  0  0  0
  7  8  1  0  0  0
  8  9  1  0  0  0
  9 10  2  0  0  0
  9 12  1  0  0  0
 12 25  1  0  0  0
 25 26  1  0  0  0
 26 27  1  0  0  0
 26 28  1  0  0  0
 12 13  1  0  0  0
 13 14  1  0  0  0
 14 15  2  0  0  0
 14 17  1  0  0  0
 17 21  1  0  0  0
 21 22  1  0  0  0
 22 23  1  0  0  0
 22 24  1  0  0  0
 17 18  1  0  0  0
 18 19  1  0  0  0
 18 20  1  0  0  0
 47 48  1  0  0  0
 48 49  1  0  0  0
 48 50  1  0  0  0
 43 46  1  0  0  0
 38 41  1  0  0  0
 33 36  1  0  0  0
  3  6  1  0  0  0
  8 11  1  0  0  0
 13 16  1  0  0  0
M  END
> <minimizedAffinity>
-6.84965

> <CNNscore>
0.0815999880

> <CNNaffinity>
6.8779106140

> <CNN_VS>
0.5612373948

> <CNNaffinity_variance>
0.9559804797

$$$$
