[H]c1c([H])c([H])c(N2C([H])([H])C([H])([H])N(C(=O)C([H])([H])Sc3nnc([H])n3-c3c([H])c([H])c([H])c([H])c3C([H])([H])[H])C([H])([H])C2([H])[H])c([H])c1[H]


 28 31  0  0  0  0  0  0  0  0999 V2000
  -87.8961   28.1499   -0.8982 C   0  0  0  0  0  0  0  0  0  0  0  0
  -88.8291   29.2364   -0.5405 C   0  0  0  0  0  0  0  0  0  0  0  0
  -89.4163   29.2013    0.5634 O   0  0  0  0  0  0  0  0  0  0  0  0
  -89.0706   30.3150   -1.4207 N   0  0  0  0  0  0  0  0  0  0  0  0
  -88.4137   30.3471   -2.6920 C   0  0  0  0  0  0  0  0  0  0  0  0
  -88.7573   31.5807   -3.5046 C   0  0  0  0  0  0  0  0  0  0  0  0
  -88.8116   32.7616   -2.6764 N   0  0  0  0  0  0  0  0  0  0  0  0
  -89.1599   32.6878   -1.2586 C   0  0  0  0  0  0  0  0  0  0  0  0
  -89.9665   31.3956   -1.0670 C   0  0  0  0  0  0  0  0  0  0  0  0
  -88.5318   34.0205   -3.2389 C   0  0  0  0  0  0  0  0  0  0  0  0
  -87.2869   34.3015   -3.7425 C   0  0  0  0  0  0  0  0  0  0  0  0
  -87.0439   35.5576   -4.2817 C   0  0  0  0  0  0  0  0  0  0  0  0
  -88.0195   36.5321   -4.3262 C   0  0  0  0  0  0  0  0  0  0  0  0
  -89.2792   36.2506   -3.8183 C   0  0  0  0  0  0  0  0  0  0  0  0
  -89.5207   35.0067   -3.2839 C   0  0  0  0  0  0  0  0  0  0  0  0
  -86.1623   28.6610   -0.7071 S   0  0  0  0  0  0  0  0  0  0  0  0
  -85.3323   30.2795    1.4488 N   0  0  0  0  0  0  0  0  0  0  0  0
  -85.2654   30.2310    2.7824 C   0  0  0  0  0  0  0  0  0  0  0  0
  -85.7525   29.0409    3.1593 N   0  0  0  0  0  0  0  0  0  0  0  0
  -86.1056   28.3821    2.0927 N   0  0  0  0  0  0  0  0  0  0  0  0
  -85.8544   29.1313    1.0124 C   0  0  0  0  0  0  0  0  0  0  0  0
  -82.5751   30.6262    1.0937 C   0  0  0  0  0  0  0  0  0  0  0  0
  -83.5636   31.5495    0.4639 C   0  0  0  0  0  0  0  0  0  0  0  0
  -83.1458   32.6071   -0.3147 C   0  0  0  0  0  0  0  0  0  0  0  0
  -84.0893   33.4515   -0.8901 C   0  0  0  0  0  0  0  0  0  0  0  0
  -85.4436   33.2758   -0.7145 C   0  0  0  0  0  0  0  0  0  0  0  0
  -85.8662   32.2202    0.0631 C   0  0  0  0  0  0  0  0  0  0  0  0
  -84.9184   31.3739    0.6398 C   0  0  0  0  0  0  0  0  0  0  0  0
 22 23  1  0  0  0
 23 24  2  0  0  0
 24 25  1  0  0  0
 25 26  2  0  0  0
 26 27  1  0  0  0
 27 28  2  0  0  0
 28 17  1  0  0  0
 17 18  1  0  0  0
 18 19  2  0  0  0
 19 20  1  0  0  0
 20 21  2  0  0  0
 21 16  1  0  0  0
 16  1  1  0  0  0
  1  2  1  0  0  0
  2  3  2  0  0  0
  2  4  1  0  0  0
  4  5  1  0  0  0
  5  6  1  0  0  0
  6  7  1  0  0  0
  7 10  1  0  0  0
 10 11  2  0  0  0
 11 12  1  0  0  0
 12 13  2  0  0  0
 13 14  1  0  0  0
 14 15  2  0  0  0
  7  8  1  0  0  0
  8  9  1  0  0  0
 28 23  1  0  0  0
 21 17  1  0  0  0
  9  4  1  0  0  0
 15 10  1  0  0  0
M  END
> <minimizedAffinity>
-8.39026

> <CNNscore>
0.7895877361

> <CNNaffinity>
6.9007654190

> <CNN_VS>
5.4487595558

> <CNNaffinity_variance>
0.2383905649

$$$$
[H]c1c([H])c([H])c(N2C([H])([H])C([H])([H])N(C(=O)C([H])([H])Sc3nnc([H])n3-c3c([H])c([H])c([H])c([H])c3C([H])([H])[H])C([H])([H])C2([H])[H])c([H])c1[H]


 28 31  0  0  0  0  0  0  0  0999 V2000
  -87.5459   27.2795   -0.1198 C   0  0  0  0  0  0  0  0  0  0  0  0
  -88.9733   27.6331    0.0078 C   0  0  0  0  0  0  0  0  0  0  0  0
  -89.3087   28.5594    0.7786 O   0  0  0  0  0  0  0  0  0  0  0  0
  -89.9673   26.9458   -0.7244 N   0  0  0  0  0  0  0  0  0  0  0  0
  -89.5871   25.8733   -1.5927 C   0  0  0  0  0  0  0  0  0  0  0  0
  -90.7645   25.2589   -2.3249 C   0  0  0  0  0  0  0  0  0  0  0  0
  -91.6962   26.2678   -2.7691 N   0  0  0  0  0  0  0  0  0  0  0  0
  -91.8451   27.5381   -2.0613 C   0  0  0  0  0  0  0  0  0  0  0  0
  -91.3665   27.3022   -0.6217 C   0  0  0  0  0  0  0  0  0  0  0  0
  -92.4910   26.0301   -3.9055 C   0  0  0  0  0  0  0  0  0  0  0  0
  -92.4840   26.9066   -4.9609 C   0  0  0  0  0  0  0  0  0  0  0  0
  -93.2881   26.6448   -6.0620 C   0  0  0  0  0  0  0  0  0  0  0  0
  -94.0943   25.5271   -6.1256 C   0  0  0  0  0  0  0  0  0  0  0  0
  -94.1031   24.6389   -5.0602 C   0  0  0  0  0  0  0  0  0  0  0  0
  -93.3071   24.8975   -3.9691 C   0  0  0  0  0  0  0  0  0  0  0  0
  -86.5028   28.7538   -0.3251 S   0  0  0  0  0  0  0  0  0  0  0  0
  -85.3135   30.4730    1.5688 N   0  0  0  0  0  0  0  0  0  0  0  0
  -85.0491   30.5068    2.8781 C   0  0  0  0  0  0  0  0  0  0  0  0
  -85.5080   29.3626    3.4034 N   0  0  0  0  0  0  0  0  0  0  0  0
  -86.0355   28.6514    2.4482 N   0  0  0  0  0  0  0  0  0  0  0  0
  -85.9276   29.3203    1.2939 C   0  0  0  0  0  0  0  0  0  0  0  0
  -82.6098   30.7933    0.9083 C   0  0  0  0  0  0  0  0  0  0  0  0
  -83.6660   31.6596    0.3081 C   0  0  0  0  0  0  0  0  0  0  0  0
  -83.3396   32.6495   -0.5933 C   0  0  0  0  0  0  0  0  0  0  0  0
  -84.3447   33.4417   -1.1376 C   0  0  0  0  0  0  0  0  0  0  0  0
  -85.6725   33.2791   -0.8117 C   0  0  0  0  0  0  0  0  0  0  0  0
  -86.0040   32.2911    0.0891 C   0  0  0  0  0  0  0  0  0  0  0  0
  -84.9943   31.4971    0.6345 C   0  0  0  0  0  0  0  0  0  0  0  0
 22 23  1  0  0  0
 23 24  2  0  0  0
 24 25  1  0  0  0
 25 26  2  0  0  0
 26 27  1  0  0  0
 27 28  2  0  0  0
 28 17  1  0  0  0
 17 18  1  0  0  0
 18 19  2  0  0  0
 19 20  1  0  0  0
 20 21  2  0  0  0
 21 16  1  0  0  0
 16  1  1  0  0  0
  1  2  1  0  0  0
  2  3  2  0  0  0
  2  4  1  0  0  0
  4  5  1  0  0  0
  5  6  1  0  0  0
  6  7  1  0  0  0
  7 10  1  0  0  0
 10 11  2  0  0  0
 11 12  1  0  0  0
 12 13  2  0  0  0
 13 14  1  0  0  0
 14 15  2  0  0  0
  7  8  1  0  0  0
  8  9  1  0  0  0
 28 23  1  0  0  0
 21 17  1  0  0  0
  9  4  1  0  0  0
 15 10  1  0  0  0
M  END
> <minimizedAffinity>
-8.28501

> <CNNscore>
0.5531181693

> <CNNaffinity>
6.1942062378

> <CNN_VS>
3.4261279106

> <CNNaffinity_variance>
0.1510749459

$$$$
[H]c1c([H])c([H])c(N2C([H])([H])C([H])([H])N(C(=O)C([H])([H])Sc3nnc([H])n3-c3c([H])c([H])c([H])c([H])c3C([H])([H])[H])C([H])([H])C2([H])[H])c([H])c1[H]


 28 31  0  0  0  0  0  0  0  0999 V2000
  -86.9790   28.0223   -0.3638 C   0  0  0  0  0  0  0  0  0  0  0  0
  -87.6453   26.7078   -0.2798 C   0  0  0  0  0  0  0  0  0  0  0  0
  -87.2748   25.8873    0.5886 O   0  0  0  0  0  0  0  0  0  0  0  0
  -88.6936   26.3594   -1.1608 N   0  0  0  0  0  0  0  0  0  0  0  0
  -89.1062   27.2899   -2.1671 C   0  0  0  0  0  0  0  0  0  0  0  0
  -90.2574   26.7772   -3.0108 C   0  0  0  0  0  0  0  0  0  0  0  0
  -91.2353   26.0842   -2.2065 N   0  0  0  0  0  0  0  0  0  0  0  0
  -90.8645   25.4034   -0.9672 C   0  0  0  0  0  0  0  0  0  0  0  0
  -89.3670   25.0812   -1.0694 C   0  0  0  0  0  0  0  0  0  0  0  0
  -92.5797   26.0504   -2.6201 C   0  0  0  0  0  0  0  0  0  0  0  0
  -93.5867   25.8410   -1.7122 C   0  0  0  0  0  0  0  0  0  0  0  0
  -94.9012   25.8045   -2.1575 C   0  0  0  0  0  0  0  0  0  0  0  0
  -95.2242   25.9736   -3.4881 C   0  0  0  0  0  0  0  0  0  0  0  0
  -94.2081   26.1860   -4.4083 C   0  0  0  0  0  0  0  0  0  0  0  0
  -92.9058   26.2221   -3.9680 C   0  0  0  0  0  0  0  0  0  0  0  0
  -86.6957   28.7399    1.2819 S   0  0  0  0  0  0  0  0  0  0  0  0
  -83.9486   28.8721    1.9090 N   0  0  0  0  0  0  0  0  0  0  0  0
  -83.0005   28.1118    2.4642 C   0  0  0  0  0  0  0  0  0  0  0  0
  -83.5771   26.9536    2.8135 N   0  0  0  0  0  0  0  0  0  0  0  0
  -84.8361   27.0024    2.4831 N   0  0  0  0  0  0  0  0  0  0  0  0
  -85.0944   28.1876    1.9172 C   0  0  0  0  0  0  0  0  0  0  0  0
  -85.0154   30.9799    3.4149 C   0  0  0  0  0  0  0  0  0  0  0  0
  -84.2856   31.2270    2.1372 C   0  0  0  0  0  0  0  0  0  0  0  0
  -84.1153   32.5076    1.6575 C   0  0  0  0  0  0  0  0  0  0  0  0
  -83.4302   32.7088    0.4640 C   0  0  0  0  0  0  0  0  0  0  0  0
  -82.9056   31.6698   -0.2716 C   0  0  0  0  0  0  0  0  0  0  0  0
  -83.0733   30.3878    0.2036 C   0  0  0  0  0  0  0  0  0  0  0  0
  -83.7611   30.1876    1.4012 C   0  0  0  0  0  0  0  0  0  0  0  0
 22 23  1  0  0  0
 23 24  2  0  0  0
 24 25  1  0  0  0
 25 26  2  0  0  0
 26 27  1  0  0  0
 27 28  2  0  0  0
 28 17  1  0  0  0
 17 18  1  0  0  0
 18 19  2  0  0  0
 19 20  1  0  0  0
 20 21  2  0  0  0
 21 16  1  0  0  0
 16  1  1  0  0  0
  1  2  1  0  0  0
  2  3  2  0  0  0
  2  4  1  0  0  0
  4  5  1  0  0  0
  5  6  1  0  0  0
  6  7  1  0  0  0
  7 10  1  0  0  0
 10 11  2  0  0  0
 11 12  1  0  0  0
 12 13  2  0  0  0
 13 14  1  0  0  0
 14 15  2  0  0  0
  7  8  1  0  0  0
  8  9  1  0  0  0
 28 23  1  0  0  0
 21 17  1  0  0  0
  9  4  1  0  0  0
 15 10  1  0  0  0
M  END
> <minimizedAffinity>
-7.54990

> <CNNscore>
0.4546645284

> <CNNaffinity>
6.3001546860

> <CNN_VS>
2.8644568920

> <CNNaffinity_variance>
0.1709213108

$$$$
[H]c1c([H])c([H])c(N2C([H])([H])C([H])([H])N(C(=O)C([H])([H])Sc3nnc([H])n3-c3c([H])c([H])c([H])c([H])c3C([H])([H])[H])C([H])([H])C2([H])[H])c([H])c1[H]


 28 31  0  0  0  0  0  0  0  0999 V2000
  -87.0199   26.4331    0.7476 C   0  0  0  0  0  0  0  0  0  0  0  0
  -88.3542   26.5452    0.1264 C   0  0  0  0  0  0  0  0  0  0  0  0
  -89.3264   25.9601    0.6529 O   0  0  0  0  0  0  0  0  0  0  0  0
  -88.5540   27.3011   -1.0505 N   0  0  0  0  0  0  0  0  0  0  0  0
  -87.4392   27.9558   -1.6646 C   0  0  0  0  0  0  0  0  0  0  0  0
  -87.8242   28.7459   -2.9005 C   0  0  0  0  0  0  0  0  0  0  0  0
  -89.0739   29.4438   -2.7142 N   0  0  0  0  0  0  0  0  0  0  0  0
  -90.1029   28.9431   -1.8046 C   0  0  0  0  0  0  0  0  0  0  0  0
  -89.8638   27.4343   -1.6523 C   0  0  0  0  0  0  0  0  0  0  0  0
  -89.3212   30.6319   -3.4262 C   0  0  0  0  0  0  0  0  0  0  0  0
  -90.4689   31.3519   -3.2103 C   0  0  0  0  0  0  0  0  0  0  0  0
  -90.6840   32.5146   -3.9378 C   0  0  0  0  0  0  0  0  0  0  0  0
  -89.7757   32.9675   -4.8722 C   0  0  0  0  0  0  0  0  0  0  0  0
  -88.6142   32.2418   -5.0923 C   0  0  0  0  0  0  0  0  0  0  0  0
  -88.4003   31.0899   -4.3723 C   0  0  0  0  0  0  0  0  0  0  0  0
  -86.5701   27.9430    1.6540 S   0  0  0  0  0  0  0  0  0  0  0  0
  -83.9071   28.8295    1.9360 N   0  0  0  0  0  0  0  0  0  0  0  0
  -82.7385   28.3863    2.4085 C   0  0  0  0  0  0  0  0  0  0  0  0
  -82.9470   27.1499    2.8812 N   0  0  0  0  0  0  0  0  0  0  0  0
  -84.2010   26.8454    2.7040 N   0  0  0  0  0  0  0  0  0  0  0  0
  -84.8225   27.8751    2.1165 C   0  0  0  0  0  0  0  0  0  0  0  0
  -85.2366   30.7384    3.4972 C   0  0  0  0  0  0  0  0  0  0  0  0
  -84.7850   31.0456    2.1087 C   0  0  0  0  0  0  0  0  0  0  0  0
  -85.0114   32.2850    1.5504 C   0  0  0  0  0  0  0  0  0  0  0  0
  -84.5788   32.5441    0.2543 C   0  0  0  0  0  0  0  0  0  0  0  0
  -83.9238   31.6034   -0.5085 C   0  0  0  0  0  0  0  0  0  0  0  0
  -83.6952   30.3629    0.0450 C   0  0  0  0  0  0  0  0  0  0  0  0
  -84.1299   30.1045    1.3456 C   0  0  0  0  0  0  0  0  0  0  0  0
 22 23  1  0  0  0
 23 24  2  0  0  0
 24 25  1  0  0  0
 25 26  2  0  0  0
 26 27  1  0  0  0
 27 28  2  0  0  0
 28 17  1  0  0  0
 17 18  1  0  0  0
 18 19  2  0  0  0
 19 20  1  0  0  0
 20 21  2  0  0  0
 21 16  1  0  0  0
 16  1  1  0  0  0
  1  2  1  0  0  0
  2  3  2  0  0  0
  2  4  1  0  0  0
  4  5  1  0  0  0
  5  6  1  0  0  0
  6  7  1  0  0  0
  7 10  1  0  0  0
 10 11  2  0  0  0
 11 12  1  0  0  0
 12 13  2  0  0  0
 13 14  1  0  0  0
 14 15  2  0  0  0
  7  8  1  0  0  0
  8  9  1  0  0  0
 28 23  1  0  0  0
 21 17  1  0  0  0
  9  4  1  0  0  0
 15 10  1  0  0  0
M  END
> <minimizedAffinity>
-8.15492

> <CNNscore>
0.4387919307

> <CNNaffinity>
6.5884809494

> <CNN_VS>
2.8909723759

> <CNNaffinity_variance>
0.1355829388

$$$$
[H]c1c([H])c([H])c(N2C([H])([H])C([H])([H])N(C(=O)C([H])([H])Sc3nnc([H])n3-c3c([H])c([H])c([H])c([H])c3C([H])([H])[H])C([H])([H])C2([H])[H])c([H])c1[H]


 28 31  0  0  0  0  0  0  0  0999 V2000
  -87.4538   27.2848   -0.5081 C   0  0  0  0  0  0  0  0  0  0  0  0
  -88.8857   27.4764   -0.2047 C   0  0  0  0  0  0  0  0  0  0  0  0
  -89.3188   28.6313    0.0033 O   0  0  0  0  0  0  0  0  0  0  0  0
  -89.7758   26.3806   -0.1458 N   0  0  0  0  0  0  0  0  0  0  0  0
  -89.2782   25.0567   -0.3652 C   0  0  0  0  0  0  0  0  0  0  0  0
  -90.3619   23.9980   -0.2950 C   0  0  0  0  0  0  0  0  0  0  0  0
  -91.5768   24.4412   -0.9361 N   0  0  0  0  0  0  0  0  0  0  0  0
  -91.9290   25.8578   -1.0145 C   0  0  0  0  0  0  0  0  0  0  0  0
  -91.1854   26.5633    0.1284 C   0  0  0  0  0  0  0  0  0  0  0  0
  -92.4544   23.4946   -1.4958 C   0  0  0  0  0  0  0  0  0  0  0  0
  -93.4422   22.9204   -0.7364 C   0  0  0  0  0  0  0  0  0  0  0  0
  -94.2841   21.9830   -1.3196 C   0  0  0  0  0  0  0  0  0  0  0  0
  -94.1561   21.6125   -2.6423 C   0  0  0  0  0  0  0  0  0  0  0  0
  -93.1586   22.1917   -3.4127 C   0  0  0  0  0  0  0  0  0  0  0  0
  -92.3241   23.1201   -2.8358 C   0  0  0  0  0  0  0  0  0  0  0  0
  -86.5552   28.8644   -0.5408 S   0  0  0  0  0  0  0  0  0  0  0  0
  -85.3330   30.3747    1.5042 N   0  0  0  0  0  0  0  0  0  0  0  0
  -85.0962   30.2944    2.8167 C   0  0  0  0  0  0  0  0  0  0  0  0
  -85.6168   29.1350    3.2418 N   0  0  0  0  0  0  0  0  0  0  0  0
  -86.1541   28.5252    2.2240 N   0  0  0  0  0  0  0  0  0  0  0  0
  -85.9913   29.2763    1.1281 C   0  0  0  0  0  0  0  0  0  0  0  0
  -82.5902   30.7134    1.0449 C   0  0  0  0  0  0  0  0  0  0  0  0
  -83.6007   31.6243    0.4323 C   0  0  0  0  0  0  0  0  0  0  0  0
  -83.2111   32.6660   -0.3814 C   0  0  0  0  0  0  0  0  0  0  0  0
  -84.1747   33.4991   -0.9398 C   0  0  0  0  0  0  0  0  0  0  0  0
  -85.5218   33.3274   -0.7130 C   0  0  0  0  0  0  0  0  0  0  0  0
  -85.9164   32.2876    0.0999 C   0  0  0  0  0  0  0  0  0  0  0  0
  -84.9484   31.4527    0.6594 C   0  0  0  0  0  0  0  0  0  0  0  0
 22 23  1  0  0  0
 23 24  2  0  0  0
 24 25  1  0  0  0
 25 26  2  0  0  0
 26 27  1  0  0  0
 27 28  2  0  0  0
 28 17  1  0  0  0
 17 18  1  0  0  0
 18 19  2  0  0  0
 19 20  1  0  0  0
 20 21  2  0  0  0
 21 16  1  0  0  0
 16  1  1  0  0  0
  1  2  1  0  0  0
  2  3  2  0  0  0
  2  4  1  0  0  0
  4  5  1  0  0  0
  5  6  1  0  0  0
  6  7  1  0  0  0
  7 10  1  0  0  0
 10 11  2  0  0  0
 11 12  1  0  0  0
 12 13  2  0  0  0
 13 14  1  0  0  0
 14 15  2  0  0  0
  7  8  1  0  0  0
  8  9  1  0  0  0
 28 23  1  0  0  0
 21 17  1  0  0  0
  9  4  1  0  0  0
 15 10  1  0  0  0
M  END
> <minimizedAffinity>
-7.82306

> <CNNscore>
0.4254825115

> <CNNaffinity>
6.0067625046

> <CNN_VS>
2.5557723045

> <CNNaffinity_variance>
0.2583431005

$$$$
[H]c1c([H])c([H])c(N2C([H])([H])C([H])([H])N(C(=O)C([H])([H])Sc3nnc([H])n3-c3c([H])c([H])c([H])c([H])c3C([H])([H])[H])C([H])([H])C2([H])[H])c([H])c1[H]


 28 31  0  0  0  0  0  0  0  0999 V2000
  -88.0318   29.7477   -1.3858 C   0  0  0  0  0  0  0  0  0  0  0  0
  -87.9739   30.2734   -2.7638 C   0  0  0  0  0  0  0  0  0  0  0  0
  -88.0363   29.4772   -3.7266 O   0  0  0  0  0  0  0  0  0  0  0  0
  -87.8502   31.6582   -3.0159 N   0  0  0  0  0  0  0  0  0  0  0  0
  -87.7599   32.5689   -1.9153 C   0  0  0  0  0  0  0  0  0  0  0  0
  -87.6594   34.0175   -2.3527 C   0  0  0  0  0  0  0  0  0  0  0  0
  -88.5349   34.2961   -3.4660 N   0  0  0  0  0  0  0  0  0  0  0  0
  -88.9109   33.2575   -4.4235 C   0  0  0  0  0  0  0  0  0  0  0  0
  -87.8160   32.1829   -4.3646 C   0  0  0  0  0  0  0  0  0  0  0  0
  -89.0383   35.5972   -3.6478 C   0  0  0  0  0  0  0  0  0  0  0  0
  -90.3415   35.7974   -4.0271 C   0  0  0  0  0  0  0  0  0  0  0  0
  -90.8014   37.0951   -4.2062 C   0  0  0  0  0  0  0  0  0  0  0  0
  -89.9848   38.1902   -4.0129 C   0  0  0  0  0  0  0  0  0  0  0  0
  -88.6669   37.9909   -3.6289 C   0  0  0  0  0  0  0  0  0  0  0  0
  -88.2105   36.7058   -3.4514 C   0  0  0  0  0  0  0  0  0  0  0  0
  -86.5173   28.8442   -0.9455 S   0  0  0  0  0  0  0  0  0  0  0  0
  -85.4521   29.7584    1.5012 N   0  0  0  0  0  0  0  0  0  0  0  0
  -85.5460   29.4924    2.8072 C   0  0  0  0  0  0  0  0  0  0  0  0
  -86.4216   28.4871    2.9436 N   0  0  0  0  0  0  0  0  0  0  0  0
  -86.8494   28.1482    1.7610 N   0  0  0  0  0  0  0  0  0  0  0  0
  -86.2610   28.9250    0.8435 C   0  0  0  0  0  0  0  0  0  0  0  0
  -82.6803   29.4243    1.7333 C   0  0  0  0  0  0  0  0  0  0  0  0
  -83.2665   30.6040    1.0327 C   0  0  0  0  0  0  0  0  0  0  0  0
  -82.4559   31.5701    0.4771 C   0  0  0  0  0  0  0  0  0  0  0  0
  -83.0295   32.6589   -0.1707 C   0  0  0  0  0  0  0  0  0  0  0  0
  -84.3925   32.8177   -0.2843 C   0  0  0  0  0  0  0  0  0  0  0  0
  -85.2071   31.8548    0.2696 C   0  0  0  0  0  0  0  0  0  0  0  0
  -84.6300   30.7631    0.9194 C   0  0  0  0  0  0  0  0  0  0  0  0
 22 23  1  0  0  0
 23 24  2  0  0  0
 24 25  1  0  0  0
 25 26  2  0  0  0
 26 27  1  0  0  0
 27 28  2  0  0  0
 28 17  1  0  0  0
 17 18  1  0  0  0
 18 19  2  0  0  0
 19 20  1  0  0  0
 20 21  2  0  0  0
 21 16  1  0  0  0
 16  1  1  0  0  0
  1  2  1  0  0  0
  2  3  2  0  0  0
  2  4  1  0  0  0
  4  5  1  0  0  0
  5  6  1  0  0  0
  6  7  1  0  0  0
  7 10  1  0  0  0
 10 11  2  0  0  0
 11 12  1  0  0  0
 12 13  2  0  0  0
 13 14  1  0  0  0
 14 15  2  0  0  0
  7  8  1  0  0  0
  8  9  1  0  0  0
 28 23  1  0  0  0
 21 17  1  0  0  0
  9  4  1  0  0  0
 15 10  1  0  0  0
M  END
> <minimizedAffinity>
-9.10674

> <CNNscore>
0.4252513349

> <CNNaffinity>
6.3294239044

> <CNN_VS>
2.6915960312

> <CNNaffinity_variance>
0.2145904303

$$$$
[H]c1c([H])c([H])c(N2C([H])([H])C([H])([H])N(C(=O)C([H])([H])Sc3nnc([H])n3-c3c([H])c([H])c([H])c([H])c3C([H])([H])[H])C([H])([H])C2([H])[H])c([H])c1[H]


 28 31  0  0  0  0  0  0  0  0999 V2000
  -87.2794   27.1485    0.2880 C   0  0  0  0  0  0  0  0  0  0  0  0
  -88.7114   27.4333    0.5050 C   0  0  0  0  0  0  0  0  0  0  0  0
  -89.0726   27.9829    1.5690 O   0  0  0  0  0  0  0  0  0  0  0  0
  -89.6811   27.0977   -0.4664 N   0  0  0  0  0  0  0  0  0  0  0  0
  -89.2717   26.4520   -1.6763 C   0  0  0  0  0  0  0  0  0  0  0  0
  -90.4251   26.1847   -2.6240 C   0  0  0  0  0  0  0  0  0  0  0  0
  -91.3483   27.2937   -2.6600 N   0  0  0  0  0  0  0  0  0  0  0  0
  -91.5227   28.1829   -1.5129 C   0  0  0  0  0  0  0  0  0  0  0  0
  -91.0843   27.3948   -0.2705 C   0  0  0  0  0  0  0  0  0  0  0  0
  -92.1093   27.5292   -3.8196 C   0  0  0  0  0  0  0  0  0  0  0  0
  -92.2469   28.7988   -4.3213 C   0  0  0  0  0  0  0  0  0  0  0  0
  -93.0131   28.9951   -5.4623 C   0  0  0  0  0  0  0  0  0  0  0  0
  -93.6404   27.9491   -6.1071 C   0  0  0  0  0  0  0  0  0  0  0  0
  -93.5027   26.6644   -5.6024 C   0  0  0  0  0  0  0  0  0  0  0  0
  -92.7441   26.4690   -4.4722 C   0  0  0  0  0  0  0  0  0  0  0  0
  -86.3414   28.6598   -0.0861 S   0  0  0  0  0  0  0  0  0  0  0  0
  -85.3262   30.6722    1.6099 N   0  0  0  0  0  0  0  0  0  0  0  0
  -85.0285   30.8521    2.9000 C   0  0  0  0  0  0  0  0  0  0  0  0
  -85.3199   29.7090    3.5357 N   0  0  0  0  0  0  0  0  0  0  0  0
  -85.7803   28.8572    2.6645 N   0  0  0  0  0  0  0  0  0  0  0  0
  -85.7948   29.4320    1.4559 C   0  0  0  0  0  0  0  0  0  0  0  0
  -82.7139   31.2017    0.7471 C   0  0  0  0  0  0  0  0  0  0  0  0
  -83.8876   31.9087    0.1563 C   0  0  0  0  0  0  0  0  0  0  0  0
  -83.7190   32.8496   -0.8364 C   0  0  0  0  0  0  0  0  0  0  0  0
  -84.8309   33.4927   -1.3695 C   0  0  0  0  0  0  0  0  0  0  0  0
  -86.1132   33.2275   -0.9438 C   0  0  0  0  0  0  0  0  0  0  0  0
  -86.2870   32.2880    0.0485 C   0  0  0  0  0  0  0  0  0  0  0  0
  -85.1703   31.6437    0.5824 C   0  0  0  0  0  0  0  0  0  0  0  0
 22 23  1  0  0  0
 23 24  2  0  0  0
 24 25  1  0  0  0
 25 26  2  0  0  0
 26 27  1  0  0  0
 27 28  2  0  0  0
 28 17  1  0  0  0
 17 18  1  0  0  0
 18 19  2  0  0  0
 19 20  1  0  0  0
 20 21  2  0  0  0
 21 16  1  0  0  0
 16  1  1  0  0  0
  1  2  1  0  0  0
  2  3  2  0  0  0
  2  4  1  0  0  0
  4  5  1  0  0  0
  5  6  1  0  0  0
  6  7  1  0  0  0
  7 10  1  0  0  0
 10 11  2  0  0  0
 11 12  1  0  0  0
 12 13  2  0  0  0
 13 14  1  0  0  0
 14 15  2  0  0  0
  7  8  1  0  0  0
  8  9  1  0  0  0
 28 23  1  0  0  0
 21 17  1  0  0  0
  9  4  1  0  0  0
 15 10  1  0  0  0
M  END
> <minimizedAffinity>
-7.96845

> <CNNscore>
0.4141380191

> <CNNaffinity>
6.1965780258

> <CNN_VS>
2.5662386417

> <CNNaffinity_variance>
0.1322641969

$$$$
[H]c1c([H])c([H])c(N2C([H])([H])C([H])([H])N(C(=O)C([H])([H])Sc3nnc([H])n3-c3c([H])c([H])c([H])c([H])c3C([H])([H])[H])C([H])([H])C2([H])[H])c([H])c1[H]


 28 31  0  0  0  0  0  0  0  0999 V2000
  -86.5869   28.4557   -0.8434 C   0  0  0  0  0  0  0  0  0  0  0  0
  -87.7008   27.6352   -1.3580 C   0  0  0  0  0  0  0  0  0  0  0  0
  -87.6950   26.4003   -1.1591 O   0  0  0  0  0  0  0  0  0  0  0  0
  -88.7731   28.2182   -2.0698 N   0  0  0  0  0  0  0  0  0  0  0  0
  -88.7719   29.6285   -2.3143 C   0  0  0  0  0  0  0  0  0  0  0  0
  -90.0025   30.1000   -3.0648 C   0  0  0  0  0  0  0  0  0  0  0  0
  -91.1954   29.4378   -2.5939 N   0  0  0  0  0  0  0  0  0  0  0  0
  -91.1493   28.0960   -2.0155 C   0  0  0  0  0  0  0  0  0  0  0  0
  -89.8802   27.4232   -2.5573 C   0  0  0  0  0  0  0  0  0  0  0  0
  -92.4393   30.0872   -2.6964 C   0  0  0  0  0  0  0  0  0  0  0  0
  -92.5679   31.2435   -3.4235 C   0  0  0  0  0  0  0  0  0  0  0  0
  -93.8087   31.8623   -3.4950 C   0  0  0  0  0  0  0  0  0  0  0  0
  -94.9173   31.3469   -2.8556 C   0  0  0  0  0  0  0  0  0  0  0  0
  -94.7904   30.1777   -2.1202 C   0  0  0  0  0  0  0  0  0  0  0  0
  -93.5617   29.5642   -2.0487 C   0  0  0  0  0  0  0  0  0  0  0  0
  -86.7142   28.7146    0.9512 S   0  0  0  0  0  0  0  0  0  0  0  0
  -84.0505   28.8438    1.8703 N   0  0  0  0  0  0  0  0  0  0  0  0
  -83.1678   28.0818    2.5226 C   0  0  0  0  0  0  0  0  0  0  0  0
  -83.7791   26.9233    2.8054 N   0  0  0  0  0  0  0  0  0  0  0  0
  -84.9952   26.9735    2.3417 N   0  0  0  0  0  0  0  0  0  0  0  0
  -85.1908   28.1599    1.7538 C   0  0  0  0  0  0  0  0  0  0  0  0
  -85.0626   30.9624    3.3986 C   0  0  0  0  0  0  0  0  0  0  0  0
  -84.3064   31.2051    2.1354 C   0  0  0  0  0  0  0  0  0  0  0  0
  -84.0837   32.4868    1.6807 C   0  0  0  0  0  0  0  0  0  0  0  0
  -83.3750   32.6836    0.5004 C   0  0  0  0  0  0  0  0  0  0  0  0
  -82.8775   31.6392   -0.2463 C   0  0  0  0  0  0  0  0  0  0  0  0
  -83.0976   30.3561    0.2040 C   0  0  0  0  0  0  0  0  0  0  0  0
  -83.8090   30.1603    1.3883 C   0  0  0  0  0  0  0  0  0  0  0  0
 22 23  1  0  0  0
 23 24  2  0  0  0
 24 25  1  0  0  0
 25 26  2  0  0  0
 26 27  1  0  0  0
 27 28  2  0  0  0
 28 17  1  0  0  0
 17 18  1  0  0  0
 18 19  2  0  0  0
 19 20  1  0  0  0
 20 21  2  0  0  0
 21 16  1  0  0  0
 16  1  1  0  0  0
  1  2  1  0  0  0
  2  3  2  0  0  0
  2  4  1  0  0  0
  4  5  1  0  0  0
  5  6  1  0  0  0
  6  7  1  0  0  0
  7 10  1  0  0  0
 10 11  2  0  0  0
 11 12  1  0  0  0
 12 13  2  0  0  0
 13 14  1  0  0  0
 14 15  2  0  0  0
  7  8  1  0  0  0
  8  9  1  0  0  0
 28 23  1  0  0  0
 21 17  1  0  0  0
  9  4  1  0  0  0
 15 10  1  0  0  0
M  END
> <minimizedAffinity>
-7.74442

> <CNNscore>
0.3952732086

> <CNNaffinity>
6.4381623268

> <CNN_VS>
2.5448331833

> <CNNaffinity_variance>
0.2203991115

$$$$
[H]c1c([H])c([H])c(N2C([H])([H])C([H])([H])N(C(=O)C([H])([H])Sc3nnc([H])n3-c3c([H])c([H])c([H])c([H])c3C([H])([H])[H])C([H])([H])C2([H])[H])c([H])c1[H]


 28 31  0  0  0  0  0  0  0  0999 V2000
  -87.7376   30.5416   -1.2427 C   0  0  0  0  0  0  0  0  0  0  0  0
  -89.0792   30.5318   -1.8583 C   0  0  0  0  0  0  0  0  0  0  0  0
  -89.4611   31.5280   -2.5112 O   0  0  0  0  0  0  0  0  0  0  0  0
  -89.9392   29.4187   -1.7247 N   0  0  0  0  0  0  0  0  0  0  0  0
  -89.5110   28.2855   -0.9623 C   0  0  0  0  0  0  0  0  0  0  0  0
  -90.5351   27.1672   -0.9383 C   0  0  0  0  0  0  0  0  0  0  0  0
  -91.1564   26.9911   -2.2292 N   0  0  0  0  0  0  0  0  0  0  0  0
  -91.2924   28.1001   -3.1718 C   0  0  0  0  0  0  0  0  0  0  0  0
  -91.2469   29.3928   -2.3449 C   0  0  0  0  0  0  0  0  0  0  0  0
  -91.6536   25.7271   -2.5963 C   0  0  0  0  0  0  0  0  0  0  0  0
  -92.7764   25.6159   -3.3768 C   0  0  0  0  0  0  0  0  0  0  0  0
  -93.2439   24.3522   -3.7119 C   0  0  0  0  0  0  0  0  0  0  0  0
  -92.6108   23.2041   -3.2825 C   0  0  0  0  0  0  0  0  0  0  0  0
  -91.4751   23.3135   -2.4936 C   0  0  0  0  0  0  0  0  0  0  0  0
  -91.0115   24.5648   -2.1611 C   0  0  0  0  0  0  0  0  0  0  0  0
  -87.3610   32.1452   -0.4743 S   0  0  0  0  0  0  0  0  0  0  0  0
  -84.6612   31.6803    0.1978 N   0  0  0  0  0  0  0  0  0  0  0  0
  -83.4547   32.2007   -0.0449 C   0  0  0  0  0  0  0  0  0  0  0  0
  -83.6339   33.2516   -0.8568 N   0  0  0  0  0  0  0  0  0  0  0  0
  -84.9073   33.3715   -1.1030 N   0  0  0  0  0  0  0  0  0  0  0  0
  -85.5707   32.4045   -0.4578 C   0  0  0  0  0  0  0  0  0  0  0  0
  -84.6468   32.0794    2.9707 C   0  0  0  0  0  0  0  0  0  0  0  0
  -84.9147   30.7363    2.3786 C   0  0  0  0  0  0  0  0  0  0  0  0
  -85.1632   29.6461    3.1841 C   0  0  0  0  0  0  0  0  0  0  0  0
  -85.4105   28.4061    2.6050 C   0  0  0  0  0  0  0  0  0  0  0  0
  -85.4188   28.2152    1.2415 C   0  0  0  0  0  0  0  0  0  0  0  0
  -85.1708   29.3018    0.4320 C   0  0  0  0  0  0  0  0  0  0  0  0
  -84.9227   30.5453    1.0145 C   0  0  0  0  0  0  0  0  0  0  0  0
 22 23  1  0  0  0
 23 24  2  0  0  0
 24 25  1  0  0  0
 25 26  2  0  0  0
 26 27  1  0  0  0
 27 28  2  0  0  0
 28 17  1  0  0  0
 17 18  1  0  0  0
 18 19  2  0  0  0
 19 20  1  0  0  0
 20 21  2  0  0  0
 21 16  1  0  0  0
 16  1  1  0  0  0
  1  2  1  0  0  0
  2  3  2  0  0  0
  2  4  1  0  0  0
  4  5  1  0  0  0
  5  6  1  0  0  0
  6  7  1  0  0  0
  7 10  1  0  0  0
 10 11  2  0  0  0
 11 12  1  0  0  0
 12 13  2  0  0  0
 13 14  1  0  0  0
 14 15  2  0  0  0
  7  8  1  0  0  0
  8  9  1  0  0  0
 28 23  1  0  0  0
 21 17  1  0  0  0
  9  4  1  0  0  0
 15 10  1  0  0  0
M  END
> <minimizedAffinity>
-7.97262

> <CNNscore>
0.2156624347

> <CNNaffinity>
5.8560295105

> <CNN_VS>
1.2629256248

> <CNNaffinity_variance>
0.1811829656

$$$$
[H]OC(C([H])([H])[H])(C([H])([H])[H])C([H])([H])C([H])([H])N([H])S(=O)(=O)c1c([H])c([H])c(C([H])([H])[H])c(-c2c([H])nc(N([H])[H])c(-c3onc(C([H])([H])[H])c3[H])c2[H])c1[H]


 34 36  0  0  0  0  0  0  0  0999 V2000
  -89.6832   29.9473   -0.7740 C   0  0  0  0  0  0  0  0  0  0  0  0
  -89.0913   29.1295    0.1959 C   0  0  0  0  0  0  0  0  0  0  0  0
  -89.7070   27.9834    0.6528 C   0  0  0  0  0  0  0  0  0  0  0  0
  -90.9319   27.6120    0.1606 C   0  0  0  0  0  0  0  0  0  0  0  0
  -91.5358   28.3994   -0.7950 C   0  0  0  0  0  0  0  0  0  0  0  0
  -90.9032   29.5686   -1.2588 C   0  0  0  0  0  0  0  0  0  0  0  0
  -91.5683   30.3907   -2.3049 C   0  0  0  0  0  0  0  0  0  0  0  0
  -87.0867   32.5583   -1.3382 C   0  0  0  0  0  0  0  0  0  0  0  0
  -87.6978   31.3726   -0.9054 C   0  0  0  0  0  0  0  0  0  0  0  0
  -89.0217   31.1646   -1.2298 C   0  0  0  0  0  0  0  0  0  0  0  0
  -89.6795   32.1329   -1.9632 C   0  0  0  0  0  0  0  0  0  0  0  0
  -89.0823   33.2587   -2.3687 N   0  0  0  0  0  0  0  0  0  0  0  0
  -87.7734   33.4791   -2.0563 C   0  0  0  0  0  0  0  0  0  0  0  0
  -87.1833   34.6810   -2.5048 N   0  0  0  0  0  0  0  0  0  0  0  0
  -87.1946   35.5699   -1.9533 H   0  0  0  0  0  0  0  0  0  0  0  0
  -86.7075   34.7159   -3.4226 H   0  0  0  0  0  0  0  0  0  0  0  0
  -82.4583   32.0939    0.6900 C   0  0  0  0  0  0  0  0  0  0  0  0
  -83.6442   32.5486   -0.0970 C   0  0  0  0  0  0  0  0  0  0  0  0
  -84.9298   31.9741   -0.1003 C   0  0  0  0  0  0  0  0  0  0  0  0
  -85.6760   32.7180   -0.9599 C   0  0  0  0  0  0  0  0  0  0  0  0
  -84.8975   33.6764   -1.4442 O   0  0  0  0  0  0  0  0  0  0  0  0
  -83.7281   33.5766   -0.9457 N   0  0  0  0  0  0  0  0  0  0  0  0
  -88.9081   26.9952    1.8771 S   0  0  0  0  0  0  0  0  0  0  0  0
  -89.8206   26.9718    3.0817 O   0  0  0  0  0  0  0  0  0  0  0  0
  -88.6783   25.6298    1.3328 O   0  0  0  0  0  0  0  0  0  0  0  0
  -87.4716   27.7928    2.3295 N   0  0  0  0  0  0  0  0  0  0  0  0
  -87.2842   27.5413    3.3443 H   0  0  0  0  0  0  0  0  0  0  0  0
  -86.3374   27.4101    1.5133 C   0  0  0  0  0  0  0  0  0  0  0  0
  -85.4359   28.5613    1.2059 C   0  0  0  0  0  0  0  0  0  0  0  0
  -84.5150   28.9141    2.3257 C   0  0  0  0  0  0  0  0  0  0  0  0
  -83.0987   29.1695    1.9231 C   0  0  0  0  0  0  0  0  0  0  0  0
  -85.0477   30.1373    3.0315 C   0  0  0  0  0  0  0  0  0  0  0  0
  -84.5137   27.8766    3.2601 O   0  0  0  0  0  0  0  0  0  0  0  0
  -84.4550   28.2090    4.1782 H   0  0  0  0  0  0  0  0  0  0  0  0
 17 18  1  0  0  0
 18 19  1  0  0  0
 19 20  2  0  0  0
 20  8  1  0  0  0
  8  9  2  0  0  0
  9 10  1  0  0  0
 10  1  1  0  0  0
  1  2  2  0  0  0
  2  3  1  0  0  0
  3 23  1  0  0  0
 23 24  2  0  0  0
 23 25  2  0  0  0
 23 26  1  0  0  0
 26 28  1  0  0  0
 28 29  1  0  0  0
 29 30  1  0  0  0
 30 31  1  0  0  0
 30 32  1  0  0  0
 30 33  1  0  0  0
  3  4  2  0  0  0
  4  5  1  0  0  0
  5  6  2  0  0  0
  6  7  1  0  0  0
 10 11  2  0  0  0
 11 12  1  0  0  0
 12 13  2  0  0  0
 13 14  1  0  0  0
 20 21  1  0  0  0
 21 22  1  0  0  0
 22 18  2  0  0  0
 13  8  1  0  0  0
  6  1  1  0  0  0
 26 27  1  0  0  0
 33 34  1  0  0  0
 14 15  1  0  0  0
 14 16  1  0  0  0
M  END
> <minimizedAffinity>
-8.49896

> <CNNscore>
0.6895267963

> <CNNaffinity>
7.3261404037

> <CNN_VS>
5.0515699387

> <CNNaffinity_variance>
0.1749215275

$$$$
[H]OC(C([H])([H])[H])(C([H])([H])[H])C([H])([H])C([H])([H])N([H])S(=O)(=O)c1c([H])c([H])c(C([H])([H])[H])c(-c2c([H])nc(N([H])[H])c(-c3onc(C([H])([H])[H])c3[H])c2[H])c1[H]


 34 36  0  0  0  0  0  0  0  0999 V2000
  -88.2436   31.6691   -1.4126 C   0  0  0  0  0  0  0  0  0  0  0  0
  -88.8421   30.4793   -0.9811 C   0  0  0  0  0  0  0  0  0  0  0  0
  -90.1380   30.1538   -1.3217 C   0  0  0  0  0  0  0  0  0  0  0  0
  -90.8824   31.0003   -2.1026 C   0  0  0  0  0  0  0  0  0  0  0  0
  -90.3166   32.1776   -2.5407 C   0  0  0  0  0  0  0  0  0  0  0  0
  -88.9929   32.5057   -2.1908 C   0  0  0  0  0  0  0  0  0  0  0  0
  -88.3997   33.7739   -2.6928 C   0  0  0  0  0  0  0  0  0  0  0  0
  -84.8466   31.4466    0.1003 C   0  0  0  0  0  0  0  0  0  0  0  0
  -86.1520   31.0990   -0.2765 C   0  0  0  0  0  0  0  0  0  0  0  0
  -86.8772   32.0013   -1.0256 C   0  0  0  0  0  0  0  0  0  0  0  0
  -86.2834   33.2009   -1.3669 C   0  0  0  0  0  0  0  0  0  0  0  0
  -85.0370   33.5175   -0.9998 N   0  0  0  0  0  0  0  0  0  0  0  0
  -84.3066   32.6358   -0.2590 C   0  0  0  0  0  0  0  0  0  0  0  0
  -82.9953   33.0114    0.1061 N   0  0  0  0  0  0  0  0  0  0  0  0
  -82.7685   33.5351    0.9829 H   0  0  0  0  0  0  0  0  0  0  0  0
  -82.1961   32.7703   -0.5047 H   0  0  0  0  0  0  0  0  0  0  0  0
  -83.5236   27.4606    2.9486 C   0  0  0  0  0  0  0  0  0  0  0  0
  -83.5121   28.7161    2.1385 C   0  0  0  0  0  0  0  0  0  0  0  0
  -84.6141   29.3326    1.5154 C   0  0  0  0  0  0  0  0  0  0  0  0
  -84.1289   30.4418    0.8964 C   0  0  0  0  0  0  0  0  0  0  0  0
  -82.8239   30.4944    1.1277 O   0  0  0  0  0  0  0  0  0  0  0  0
  -82.4713   29.4995    1.8431 N   0  0  0  0  0  0  0  0  0  0  0  0
  -90.8348   28.6384   -0.7456 S   0  0  0  0  0  0  0  0  0  0  0  0
  -92.0108   28.3303   -1.6437 O   0  0  0  0  0  0  0  0  0  0  0  0
  -89.8017   27.5695   -0.8037 O   0  0  0  0  0  0  0  0  0  0  0  0
  -91.4383   28.9103    0.8249 N   0  0  0  0  0  0  0  0  0  0  0  0
  -92.4971   28.9450    0.7480 H   0  0  0  0  0  0  0  0  0  0  0  0
  -91.0496   27.8753    1.7613 C   0  0  0  0  0  0  0  0  0  0  0  0
  -91.0245   28.3589    3.1747 C   0  0  0  0  0  0  0  0  0  0  0  0
  -90.4315   27.3786    4.1307 C   0  0  0  0  0  0  0  0  0  0  0  0
  -89.4095   26.4606    3.5425 C   0  0  0  0  0  0  0  0  0  0  0  0
  -89.8050   28.1313    5.2792 C   0  0  0  0  0  0  0  0  0  0  0  0
  -91.4518   26.5930    4.6708 O   0  0  0  0  0  0  0  0  0  0  0  0
  -91.2946   26.3837    5.6133 H   0  0  0  0  0  0  0  0  0  0  0  0
 17 18  1  0  0  0
 18 19  1  0  0  0
 19 20  2  0  0  0
 20  8  1  0  0  0
  8  9  2  0  0  0
  9 10  1  0  0  0
 10  1  1  0  0  0
  1  2  2  0  0  0
  2  3  1  0  0  0
  3 23  1  0  0  0
 23 24  2  0  0  0
 23 25  2  0  0  0
 23 26  1  0  0  0
 26 28  1  0  0  0
 28 29  1  0  0  0
 29 30  1  0  0  0
 30 31  1  0  0  0
 30 32  1  0  0  0
 30 33  1  0  0  0
  3  4  2  0  0  0
  4  5  1  0  0  0
  5  6  2  0  0  0
  6  7  1  0  0  0
 10 11  2  0  0  0
 11 12  1  0  0  0
 12 13  2  0  0  0
 13 14  1  0  0  0
 20 21  1  0  0  0
 21 22  1  0  0  0
 22 18  2  0  0  0
 13  8  1  0  0  0
  6  1  1  0  0  0
 26 27  1  0  0  0
 33 34  1  0  0  0
 14 15  1  0  0  0
 14 16  1  0  0  0
M  END
> <minimizedAffinity>
-8.99163

> <CNNscore>
0.6006854177

> <CNNaffinity>
6.9725251198

> <CNN_VS>
4.1882939339

> <CNNaffinity_variance>
0.1057355627

$$$$
[H]OC(C([H])([H])[H])(C([H])([H])[H])C([H])([H])C([H])([H])N([H])S(=O)(=O)c1c([H])c([H])c(C([H])([H])[H])c(-c2c([H])nc(N([H])[H])c(-c3onc(C([H])([H])[H])c3[H])c2[H])c1[H]


 34 36  0  0  0  0  0  0  0  0999 V2000
  -85.6280   30.4787    0.5704 C   0  0  0  0  0  0  0  0  0  0  0  0
  -86.4633   29.3571    0.6352 C   0  0  0  0  0  0  0  0  0  0  0  0
  -86.2002   28.3044    1.4861 C   0  0  0  0  0  0  0  0  0  0  0  0
  -85.0977   28.3317    2.3012 C   0  0  0  0  0  0  0  0  0  0  0  0
  -84.2596   29.4243    2.2570 C   0  0  0  0  0  0  0  0  0  0  0  0
  -84.5325   30.4969    1.3868 C   0  0  0  0  0  0  0  0  0  0  0  0
  -83.6220   31.6730    1.3725 C   0  0  0  0  0  0  0  0  0  0  0  0
  -87.2223   32.5100   -2.1146 C   0  0  0  0  0  0  0  0  0  0  0  0
  -86.9744   31.4539   -1.2258 C   0  0  0  0  0  0  0  0  0  0  0  0
  -85.9161   31.5728   -0.3500 C   0  0  0  0  0  0  0  0  0  0  0  0
  -85.1536   32.7238   -0.3915 C   0  0  0  0  0  0  0  0  0  0  0  0
  -85.4031   33.7225   -1.2453 N   0  0  0  0  0  0  0  0  0  0  0  0
  -86.4462   33.6203   -2.1177 C   0  0  0  0  0  0  0  0  0  0  0  0
  -86.6730   34.6983   -3.0011 N   0  0  0  0  0  0  0  0  0  0  0  0
  -86.2292   34.7731   -3.9455 H   0  0  0  0  0  0  0  0  0  0  0  0
  -87.3059   35.4697   -2.7286 H   0  0  0  0  0  0  0  0  0  0  0  0
  -91.8227   31.8647   -4.1569 C   0  0  0  0  0  0  0  0  0  0  0  0
  -90.3533   32.0382   -3.9491 C   0  0  0  0  0  0  0  0  0  0  0  0
  -89.6845   32.2005   -2.7206 C   0  0  0  0  0  0  0  0  0  0  0  0
  -88.3636   32.3206   -3.0202 C   0  0  0  0  0  0  0  0  0  0  0  0
  -88.2398   32.2370   -4.3381 O   0  0  0  0  0  0  0  0  0  0  0  0
  -89.3870   32.0744   -4.8706 N   0  0  0  0  0  0  0  0  0  0  0  0
  -87.2925   26.9191    1.5204 S   0  0  0  0  0  0  0  0  0  0  0  0
  -87.0474   26.1393    0.2490 O   0  0  0  0  0  0  0  0  0  0  0  0
  -87.0114   26.1019    2.7313 O   0  0  0  0  0  0  0  0  0  0  0  0
  -88.8878   27.5162    1.4635 N   0  0  0  0  0  0  0  0  0  0  0  0
  -89.1837   27.5121    0.4434 H   0  0  0  0  0  0  0  0  0  0  0  0
  -89.8123   26.7195    2.2442 C   0  0  0  0  0  0  0  0  0  0  0  0
  -90.1029   27.3210    3.5807 C   0  0  0  0  0  0  0  0  0  0  0  0
  -90.3304   26.3096    4.6539 C   0  0  0  0  0  0  0  0  0  0  0  0
  -89.7613   24.9556    4.3778 C   0  0  0  0  0  0  0  0  0  0  0  0
  -89.7480   26.8272    5.9467 C   0  0  0  0  0  0  0  0  0  0  0  0
  -91.7036   26.1627    4.8594 O   0  0  0  0  0  0  0  0  0  0  0  0
  -91.9216   26.0274    5.8032 H   0  0  0  0  0  0  0  0  0  0  0  0
 17 18  1  0  0  0
 18 19  1  0  0  0
 19 20  2  0  0  0
 20  8  1  0  0  0
  8  9  2  0  0  0
  9 10  1  0  0  0
 10  1  1  0  0  0
  1  2  2  0  0  0
  2  3  1  0  0  0
  3 23  1  0  0  0
 23 24  2  0  0  0
 23 25  2  0  0  0
 23 26  1  0  0  0
 26 28  1  0  0  0
 28 29  1  0  0  0
 29 30  1  0  0  0
 30 31  1  0  0  0
 30 32  1  0  0  0
 30 33  1  0  0  0
  3  4  2  0  0  0
  4  5  1  0  0  0
  5  6  2  0  0  0
  6  7  1  0  0  0
 10 11  2  0  0  0
 11 12  1  0  0  0
 12 13  2  0  0  0
 13 14  1  0  0  0
 20 21  1  0  0  0
 21 22  1  0  0  0
 22 18  2  0  0  0
 13  8  1  0  0  0
  6  1  1  0  0  0
 26 27  1  0  0  0
 33 34  1  0  0  0
 14 15  1  0  0  0
 14 16  1  0  0  0
M  END
> <minimizedAffinity>
-8.98549

> <CNNscore>
0.5824809074

> <CNNaffinity>
7.0964937210

> <CNN_VS>
4.1335721016

> <CNNaffinity_variance>
0.3047289252

$$$$
[H]OC(C([H])([H])[H])(C([H])([H])[H])C([H])([H])C([H])([H])N([H])S(=O)(=O)c1c([H])c([H])c(C([H])([H])[H])c(-c2c([H])nc(N([H])[H])c(-c3onc(C([H])([H])[H])c3[H])c2[H])c1[H]


 34 36  0  0  0  0  0  0  0  0999 V2000
  -88.2648   26.5513    1.2021 C   0  0  0  0  0  0  0  0  0  0  0  0
  -88.8247   25.8484    2.2755 C   0  0  0  0  0  0  0  0  0  0  0  0
  -89.9895   25.1230    2.1394 C   0  0  0  0  0  0  0  0  0  0  0  0
  -90.6367   25.0724    0.9315 C   0  0  0  0  0  0  0  0  0  0  0  0
  -90.1062   25.7552   -0.1411 C   0  0  0  0  0  0  0  0  0  0  0  0
  -88.9165   26.4942    0.0025 C   0  0  0  0  0  0  0  0  0  0  0  0
  -88.3548   27.2067   -1.1761 C   0  0  0  0  0  0  0  0  0  0  0  0
  -85.7928   29.3334    1.0389 C   0  0  0  0  0  0  0  0  0  0  0  0
  -86.9851   28.6126    0.8794 C   0  0  0  0  0  0  0  0  0  0  0  0
  -87.0413   27.3265    1.3734 C   0  0  0  0  0  0  0  0  0  0  0  0
  -85.9224   26.8125    1.9994 C   0  0  0  0  0  0  0  0  0  0  0  0
  -84.7924   27.5130    2.1438 N   0  0  0  0  0  0  0  0  0  0  0  0
  -84.7209   28.7863    1.6609 C   0  0  0  0  0  0  0  0  0  0  0  0
  -83.5086   29.4890    1.8354 N   0  0  0  0  0  0  0  0  0  0  0  0
  -82.7217   29.4612    1.1466 H   0  0  0  0  0  0  0  0  0  0  0  0
  -83.3610   30.0703    2.6782 H   0  0  0  0  0  0  0  0  0  0  0  0
  -86.7568   33.5790   -1.5682 C   0  0  0  0  0  0  0  0  0  0  0  0
  -86.1894   32.5682   -0.6253 C   0  0  0  0  0  0  0  0  0  0  0  0
  -86.5931   31.2274   -0.4770 C   0  0  0  0  0  0  0  0  0  0  0  0
  -85.7991   30.6965    0.4909 C   0  0  0  0  0  0  0  0  0  0  0  0
  -84.9718   31.6488    0.9010 O   0  0  0  0  0  0  0  0  0  0  0  0
  -85.1986   32.7255    0.2566 N   0  0  0  0  0  0  0  0  0  0  0  0
  -90.6441   24.2585    3.5315 S   0  0  0  0  0  0  0  0  0  0  0  0
  -90.8802   25.2884    4.6123 O   0  0  0  0  0  0  0  0  0  0  0  0
  -91.9049   23.5748    3.1365 O   0  0  0  0  0  0  0  0  0  0  0  0
  -89.4407   23.1880    4.0887 N   0  0  0  0  0  0  0  0  0  0  0  0
  -88.8256   22.9528    3.2553 H   0  0  0  0  0  0  0  0  0  0  0  0
  -88.6325   23.7563    5.1483 C   0  0  0  0  0  0  0  0  0  0  0  0
  -87.8394   22.7248    5.8827 C   0  0  0  0  0  0  0  0  0  0  0  0
  -87.0003   23.2869    6.9809 C   0  0  0  0  0  0  0  0  0  0  0  0
  -87.5582   24.5052    7.6428 C   0  0  0  0  0  0  0  0  0  0  0  0
  -86.7843   22.2211    8.0276 C   0  0  0  0  0  0  0  0  0  0  0  0
  -85.7420   23.6148    6.4722 O   0  0  0  0  0  0  0  0  0  0  0  0
  -85.0267   23.4289    7.1129 H   0  0  0  0  0  0  0  0  0  0  0  0
 17 18  1  0  0  0
 18 19  1  0  0  0
 19 20  2  0  0  0
 20  8  1  0  0  0
  8  9  2  0  0  0
  9 10  1  0  0  0
 10  1  1  0  0  0
  1  2  2  0  0  0
  2  3  1  0  0  0
  3 23  1  0  0  0
 23 24  2  0  0  0
 23 25  2  0  0  0
 23 26  1  0  0  0
 26 28  1  0  0  0
 28 29  1  0  0  0
 29 30  1  0  0  0
 30 31  1  0  0  0
 30 32  1  0  0  0
 30 33  1  0  0  0
  3  4  2  0  0  0
  4  5  1  0  0  0
  5  6  2  0  0  0
  6  7  1  0  0  0
 10 11  2  0  0  0
 11 12  1  0  0  0
 12 13  2  0  0  0
 13 14  1  0  0  0
 20 21  1  0  0  0
 21 22  1  0  0  0
 22 18  2  0  0  0
 13  8  1  0  0  0
  6  1  1  0  0  0
 26 27  1  0  0  0
 33 34  1  0  0  0
 14 15  1  0  0  0
 14 16  1  0  0  0
M  END
> <minimizedAffinity>
-9.49827

> <CNNscore>
0.5262777209

> <CNNaffinity>
6.9388837814

> <CNN_VS>
3.6517798901

> <CNNaffinity_variance>
0.1296155155

$$$$
[H]OC(C([H])([H])[H])(C([H])([H])[H])C([H])([H])C([H])([H])N([H])S(=O)(=O)c1c([H])c([H])c(C([H])([H])[H])c(-c2c([H])nc(N([H])[H])c(-c3onc(C([H])([H])[H])c3[H])c2[H])c1[H]


 34 36  0  0  0  0  0  0  0  0999 V2000
  -85.5166   31.5538   -0.0435 C   0  0  0  0  0  0  0  0  0  0  0  0
  -85.4929   30.4108    0.7645 C   0  0  0  0  0  0  0  0  0  0  0  0
  -84.3579   30.0286    1.4480 C   0  0  0  0  0  0  0  0  0  0  0  0
  -83.2084   30.7701    1.3509 C   0  0  0  0  0  0  0  0  0  0  0  0
  -83.2054   31.8998    0.5624 C   0  0  0  0  0  0  0  0  0  0  0  0
  -84.3667   32.2864   -0.1333 C   0  0  0  0  0  0  0  0  0  0  0  0
  -84.3421   33.5210   -0.9624 C   0  0  0  0  0  0  0  0  0  0  0  0
  -87.8084   33.2094   -2.4692 C   0  0  0  0  0  0  0  0  0  0  0  0
  -86.6328   32.8489   -1.7948 C   0  0  0  0  0  0  0  0  0  0  0  0
  -86.7234   31.9294   -0.7713 C   0  0  0  0  0  0  0  0  0  0  0  0
  -87.9652   31.4101   -0.4611 C   0  0  0  0  0  0  0  0  0  0  0  0
  -89.0773   31.7642   -1.1141 N   0  0  0  0  0  0  0  0  0  0  0  0
  -89.0045   32.6722   -2.1289 C   0  0  0  0  0  0  0  0  0  0  0  0
  -90.2033   33.0168   -2.7907 N   0  0  0  0  0  0  0  0  0  0  0  0
  -90.8270   33.7987   -2.4841 H   0  0  0  0  0  0  0  0  0  0  0  0
  -90.5074   32.4869   -3.6254 H   0  0  0  0  0  0  0  0  0  0  0  0
  -86.7131   37.2970   -5.2699 C   0  0  0  0  0  0  0  0  0  0  0  0
  -87.1813   35.9568   -4.8037 C   0  0  0  0  0  0  0  0  0  0  0  0
  -87.0924   35.4350   -3.4988 C   0  0  0  0  0  0  0  0  0  0  0  0
  -87.6429   34.1925   -3.5483 C   0  0  0  0  0  0  0  0  0  0  0  0
  -88.0378   33.9759   -4.7959 O   0  0  0  0  0  0  0  0  0  0  0  0
  -87.7709   34.9934   -5.5167 N   0  0  0  0  0  0  0  0  0  0  0  0
  -84.3930   28.5768    2.4503 S   0  0  0  0  0  0  0  0  0  0  0  0
  -82.9609   28.1182    2.6034 O   0  0  0  0  0  0  0  0  0  0  0  0
  -85.0113   28.9018    3.7638 O   0  0  0  0  0  0  0  0  0  0  0  0
  -85.2342   27.3720    1.5870 N   0  0  0  0  0  0  0  0  0  0  0  0
  -84.7644   26.4459    1.8103 H   0  0  0  0  0  0  0  0  0  0  0  0
  -86.6377   27.3062    1.9405 C   0  0  0  0  0  0  0  0  0  0  0  0
  -87.4100   26.3802    1.0583 C   0  0  0  0  0  0  0  0  0  0  0  0
  -88.0711   27.0637   -0.0915 C   0  0  0  0  0  0  0  0  0  0  0  0
  -88.7131   26.1510   -1.0856 C   0  0  0  0  0  0  0  0  0  0  0  0
  -89.1151   28.0162    0.4387 C   0  0  0  0  0  0  0  0  0  0  0  0
  -87.1255   27.8365   -0.7686 O   0  0  0  0  0  0  0  0  0  0  0  0
  -87.5036   28.6778   -1.0942 H   0  0  0  0  0  0  0  0  0  0  0  0
 17 18  1  0  0  0
 18 19  1  0  0  0
 19 20  2  0  0  0
 20  8  1  0  0  0
  8  9  2  0  0  0
  9 10  1  0  0  0
 10  1  1  0  0  0
  1  2  2  0  0  0
  2  3  1  0  0  0
  3 23  1  0  0  0
 23 24  2  0  0  0
 23 25  2  0  0  0
 23 26  1  0  0  0
 26 28  1  0  0  0
 28 29  1  0  0  0
 29 30  1  0  0  0
 30 31  1  0  0  0
 30 32  1  0  0  0
 30 33  1  0  0  0
  3  4  2  0  0  0
  4  5  1  0  0  0
  5  6  2  0  0  0
  6  7  1  0  0  0
 10 11  2  0  0  0
 11 12  1  0  0  0
 12 13  2  0  0  0
 13 14  1  0  0  0
 20 21  1  0  0  0
 21 22  1  0  0  0
 22 18  2  0  0  0
 13  8  1  0  0  0
  6  1  1  0  0  0
 26 27  1  0  0  0
 33 34  1  0  0  0
 14 15  1  0  0  0
 14 16  1  0  0  0
M  END
> <minimizedAffinity>
-8.76708

> <CNNscore>
0.4507621229

> <CNNaffinity>
6.7067284584

> <CNN_VS>
3.0231392384

> <CNNaffinity_variance>
0.2740631104

$$$$
[H]OC(C([H])([H])[H])(C([H])([H])[H])C([H])([H])C([H])([H])N([H])S(=O)(=O)c1c([H])c([H])c(C([H])([H])[H])c(-c2c([H])nc(N([H])[H])c(-c3onc(C([H])([H])[H])c3[H])c2[H])c1[H]


 34 36  0  0  0  0  0  0  0  0999 V2000
  -89.8028   29.8342   -0.5859 C   0  0  0  0  0  0  0  0  0  0  0  0
  -89.2918   29.0559    0.4596 C   0  0  0  0  0  0  0  0  0  0  0  0
  -89.9407   27.9241    0.9061 C   0  0  0  0  0  0  0  0  0  0  0  0
  -91.1196   27.5283    0.3280 C   0  0  0  0  0  0  0  0  0  0  0  0
  -91.6437   28.2766   -0.7031 C   0  0  0  0  0  0  0  0  0  0  0  0
  -90.9774   29.4313   -1.1559 C   0  0  0  0  0  0  0  0  0  0  0  0
  -91.5550   30.2107   -2.2834 C   0  0  0  0  0  0  0  0  0  0  0  0
  -87.1284   32.3653   -1.1502 C   0  0  0  0  0  0  0  0  0  0  0  0
  -87.7718   31.1924   -0.7294 C   0  0  0  0  0  0  0  0  0  0  0  0
  -89.1085   31.0374   -1.0301 C   0  0  0  0  0  0  0  0  0  0  0  0
  -89.7468   32.0434   -1.7292 C   0  0  0  0  0  0  0  0  0  0  0  0
  -89.1189   33.1563   -2.1237 N   0  0  0  0  0  0  0  0  0  0  0  0
  -87.7969   33.3246   -1.8344 C   0  0  0  0  0  0  0  0  0  0  0  0
  -87.1744   34.5147   -2.2702 N   0  0  0  0  0  0  0  0  0  0  0  0
  -87.1434   35.3914   -1.7002 H   0  0  0  0  0  0  0  0  0  0  0  0
  -86.7164   34.5528   -3.1969 H   0  0  0  0  0  0  0  0  0  0  0  0
  -82.4878   31.7210    0.7994 C   0  0  0  0  0  0  0  0  0  0  0  0
  -83.6676   32.2193    0.0296 C   0  0  0  0  0  0  0  0  0  0  0  0
  -84.9762   31.6999    0.0542 C   0  0  0  0  0  0  0  0  0  0  0  0
  -85.7057   32.4680   -0.7984 C   0  0  0  0  0  0  0  0  0  0  0  0
  -84.8962   33.3886   -1.3048 O   0  0  0  0  0  0  0  0  0  0  0  0
  -83.7232   33.2432   -0.8264 N   0  0  0  0  0  0  0  0  0  0  0  0
  -89.2442   26.9860    2.2284 S   0  0  0  0  0  0  0  0  0  0  0  0
  -87.8012   27.4173    2.3557 O   0  0  0  0  0  0  0  0  0  0  0  0
  -90.0109   27.2509    3.4754 O   0  0  0  0  0  0  0  0  0  0  0  0
  -89.2567   25.3466    1.7627 N   0  0  0  0  0  0  0  0  0  0  0  0
  -88.3824   24.9023    2.1704 H   0  0  0  0  0  0  0  0  0  0  0  0
  -90.4301   24.6394    2.2338 C   0  0  0  0  0  0  0  0  0  0  0  0
  -91.1187   23.8801    1.1469 C   0  0  0  0  0  0  0  0  0  0  0  0
  -90.6008   22.4923    0.9676 C   0  0  0  0  0  0  0  0  0  0  0  0
  -91.6502   21.4315    0.8844 C   0  0  0  0  0  0  0  0  0  0  0  0
  -89.7580   22.4413   -0.2835 C   0  0  0  0  0  0  0  0  0  0  0  0
  -89.7583   22.1776    2.0356 O   0  0  0  0  0  0  0  0  0  0  0  0
  -88.9950   21.6346    1.7540 H   0  0  0  0  0  0  0  0  0  0  0  0
 17 18  1  0  0  0
 18 19  1  0  0  0
 19 20  2  0  0  0
 20  8  1  0  0  0
  8  9  2  0  0  0
  9 10  1  0  0  0
 10  1  1  0  0  0
  1  2  2  0  0  0
  2  3  1  0  0  0
  3 23  1  0  0  0
 23 24  2  0  0  0
 23 25  2  0  0  0
 23 26  1  0  0  0
 26 28  1  0  0  0
 28 29  1  0  0  0
 29 30  1  0  0  0
 30 31  1  0  0  0
 30 32  1  0  0  0
 30 33  1  0  0  0
  3  4  2  0  0  0
  4  5  1  0  0  0
  5  6  2  0  0  0
  6  7  1  0  0  0
 10 11  2  0  0  0
 11 12  1  0  0  0
 12 13  2  0  0  0
 13 14  1  0  0  0
 20 21  1  0  0  0
 21 22  1  0  0  0
 22 18  2  0  0  0
 13  8  1  0  0  0
  6  1  1  0  0  0
 26 27  1  0  0  0
 33 34  1  0  0  0
 14 15  1  0  0  0
 14 16  1  0  0  0
M  END
> <minimizedAffinity>
-7.83135

> <CNNscore>
0.4201322794

> <CNNaffinity>
6.6128478050

> <CNN_VS>
2.7782707214

> <CNNaffinity_variance>
0.1761914045

$$$$
[H]OC(C([H])([H])[H])(C([H])([H])[H])C([H])([H])C([H])([H])N([H])S(=O)(=O)c1c([H])c([H])c(C([H])([H])[H])c(-c2c([H])nc(N([H])[H])c(-c3onc(C([H])([H])[H])c3[H])c2[H])c1[H]


 34 36  0  0  0  0  0  0  0  0999 V2000
  -89.2411   30.7176   -0.8051 C   0  0  0  0  0  0  0  0  0  0  0  0
  -89.4767   29.8680    0.2823 C   0  0  0  0  0  0  0  0  0  0  0  0
  -90.6322   29.1223    0.3837 C   0  0  0  0  0  0  0  0  0  0  0  0
  -91.5921   29.1963   -0.5929 C   0  0  0  0  0  0  0  0  0  0  0  0
  -91.3844   30.0248   -1.6739 C   0  0  0  0  0  0  0  0  0  0  0  0
  -90.2030   30.7840   -1.7733 C   0  0  0  0  0  0  0  0  0  0  0  0
  -89.9952   31.6560   -2.9602 C   0  0  0  0  0  0  0  0  0  0  0  0
  -85.7168   31.8322   -0.3419 C   0  0  0  0  0  0  0  0  0  0  0  0
  -86.8753   31.0450   -0.2704 C   0  0  0  0  0  0  0  0  0  0  0  0
  -88.0195   31.5106   -0.8829 C   0  0  0  0  0  0  0  0  0  0  0  0
  -87.9684   32.7272   -1.5351 C   0  0  0  0  0  0  0  0  0  0  0  0
  -86.8554   33.4662   -1.5945 N   0  0  0  0  0  0  0  0  0  0  0  0
  -85.7154   33.0196   -0.9940 C   0  0  0  0  0  0  0  0  0  0  0  0
  -84.5639   33.8320   -1.0818 N   0  0  0  0  0  0  0  0  0  0  0  0
  -84.3290   34.5765   -0.3854 H   0  0  0  0  0  0  0  0  0  0  0  0
  -83.8986   33.7085   -1.8642 H   0  0  0  0  0  0  0  0  0  0  0  0
  -82.3781   28.9064    2.1166 C   0  0  0  0  0  0  0  0  0  0  0  0
  -83.0487   30.0337    1.4009 C   0  0  0  0  0  0  0  0  0  0  0  0
  -84.3636   30.0550    0.8976 C   0  0  0  0  0  0  0  0  0  0  0  0
  -84.5333   31.2793    0.3305 C   0  0  0  0  0  0  0  0  0  0  0  0
  -83.4006   31.9532    0.4794 O   0  0  0  0  0  0  0  0  0  0  0  0
  -82.5474   31.2337    1.0961 N   0  0  0  0  0  0  0  0  0  0  0  0
  -90.8691   28.0699    1.7801 S   0  0  0  0  0  0  0  0  0  0  0  0
  -89.4949   27.7442    2.3185 O   0  0  0  0  0  0  0  0  0  0  0  0
  -91.7041   28.7745    2.7898 O   0  0  0  0  0  0  0  0  0  0  0  0
  -91.5653   26.6180    1.2218 N   0  0  0  0  0  0  0  0  0  0  0  0
  -92.2734   26.8811    0.4751 H   0  0  0  0  0  0  0  0  0  0  0  0
  -90.5869   25.7043    0.6678 C   0  0  0  0  0  0  0  0  0  0  0  0
  -91.2123   24.4897    0.0630 C   0  0  0  0  0  0  0  0  0  0  0  0
  -90.2822   23.7074   -0.8026 C   0  0  0  0  0  0  0  0  0  0  0  0
  -89.7939   22.4255   -0.2096 C   0  0  0  0  0  0  0  0  0  0  0  0
  -90.9684   23.4064   -2.1129 C   0  0  0  0  0  0  0  0  0  0  0  0
  -89.1670   24.4927   -1.1014 O   0  0  0  0  0  0  0  0  0  0  0  0
  -88.8497   24.3479   -2.0153 H   0  0  0  0  0  0  0  0  0  0  0  0
 17 18  1  0  0  0
 18 19  1  0  0  0
 19 20  2  0  0  0
 20  8  1  0  0  0
  8  9  2  0  0  0
  9 10  1  0  0  0
 10  1  1  0  0  0
  1  2  2  0  0  0
  2  3  1  0  0  0
  3 23  1  0  0  0
 23 24  2  0  0  0
 23 25  2  0  0  0
 23 26  1  0  0  0
 26 28  1  0  0  0
 28 29  1  0  0  0
 29 30  1  0  0  0
 30 31  1  0  0  0
 30 32  1  0  0  0
 30 33  1  0  0  0
  3  4  2  0  0  0
  4  5  1  0  0  0
  5  6  2  0  0  0
  6  7  1  0  0  0
 10 11  2  0  0  0
 11 12  1  0  0  0
 12 13  2  0  0  0
 13 14  1  0  0  0
 20 21  1  0  0  0
 21 22  1  0  0  0
 22 18  2  0  0  0
 13  8  1  0  0  0
  6  1  1  0  0  0
 26 27  1  0  0  0
 33 34  1  0  0  0
 14 15  1  0  0  0
 14 16  1  0  0  0
M  END
> <minimizedAffinity>
-8.24314

> <CNNscore>
0.4043524265

> <CNNaffinity>
6.5410232544

> <CNN_VS>
2.6448786259

> <CNNaffinity_variance>
0.0983847752

$$$$
[H]OC(C([H])([H])[H])(C([H])([H])[H])C([H])([H])C([H])([H])N([H])S(=O)(=O)c1c([H])c([H])c(C([H])([H])[H])c(-c2c([H])nc(N([H])[H])c(-c3onc(C([H])([H])[H])c3[H])c2[H])c1[H]


 34 36  0  0  0  0  0  0  0  0999 V2000
  -88.1916   31.6407   -1.7182 C   0  0  0  0  0  0  0  0  0  0  0  0
  -88.6709   30.3315   -1.5910 C   0  0  0  0  0  0  0  0  0  0  0  0
  -89.9370   29.9785   -2.0079 C   0  0  0  0  0  0  0  0  0  0  0  0
  -90.7690   30.9154   -2.5652 C   0  0  0  0  0  0  0  0  0  0  0  0
  -90.3212   32.2111   -2.7020 C   0  0  0  0  0  0  0  0  0  0  0  0
  -89.0276   32.5669   -2.2752 C   0  0  0  0  0  0  0  0  0  0  0  0
  -88.5619   33.9684   -2.4519 C   0  0  0  0  0  0  0  0  0  0  0  0
  -84.8821   31.4732   -0.0162 C   0  0  0  0  0  0  0  0  0  0  0  0
  -86.1579   31.1041   -0.4666 C   0  0  0  0  0  0  0  0  0  0  0  0
  -86.8552   31.9955   -1.2541 C   0  0  0  0  0  0  0  0  0  0  0  0
  -86.2640   33.2060   -1.5597 C   0  0  0  0  0  0  0  0  0  0  0  0
  -85.0459   33.5431   -1.1224 N   0  0  0  0  0  0  0  0  0  0  0  0
  -84.3434   32.6724   -0.3427 C   0  0  0  0  0  0  0  0  0  0  0  0
  -83.0615   33.0697    0.0964 N   0  0  0  0  0  0  0  0  0  0  0  0
  -82.8937   33.5951    0.9853 H   0  0  0  0  0  0  0  0  0  0  0  0
  -82.2250   32.8439   -0.4686 H   0  0  0  0  0  0  0  0  0  0  0  0
  -83.6609   27.5240    2.9273 C   0  0  0  0  0  0  0  0  0  0  0  0
  -83.6207   28.7694    2.1027 C   0  0  0  0  0  0  0  0  0  0  0  0
  -84.6998   29.3770    1.4325 C   0  0  0  0  0  0  0  0  0  0  0  0
  -84.1931   30.4791    0.8178 C   0  0  0  0  0  0  0  0  0  0  0  0
  -82.8974   30.5357    1.0955 O   0  0  0  0  0  0  0  0  0  0  0  0
  -82.5704   29.5501    1.8355 N   0  0  0  0  0  0  0  0  0  0  0  0
  -90.4818   28.3107   -1.8198 S   0  0  0  0  0  0  0  0  0  0  0  0
  -91.7761   28.3604   -1.0408 O   0  0  0  0  0  0  0  0  0  0  0  0
  -90.6701   27.7011   -3.1637 O   0  0  0  0  0  0  0  0  0  0  0  0
  -89.3312   27.4952   -0.8630 N   0  0  0  0  0  0  0  0  0  0  0  0
  -88.6560   28.2292   -0.4977 H   0  0  0  0  0  0  0  0  0  0  0  0
  -89.9296   26.7847    0.2488 C   0  0  0  0  0  0  0  0  0  0  0  0
  -90.6567   25.5522   -0.1811 C   0  0  0  0  0  0  0  0  0  0  0  0
  -89.7715   24.3617   -0.3405 C   0  0  0  0  0  0  0  0  0  0  0  0
  -90.1861   23.1564    0.4397 C   0  0  0  0  0  0  0  0  0  0  0  0
  -89.7028   23.9941   -1.8028 C   0  0  0  0  0  0  0  0  0  0  0  0
  -88.4752   24.7005    0.0524 O   0  0  0  0  0  0  0  0  0  0  0  0
  -87.7975   24.2720   -0.5078 H   0  0  0  0  0  0  0  0  0  0  0  0
 17 18  1  0  0  0
 18 19  1  0  0  0
 19 20  2  0  0  0
 20  8  1  0  0  0
  8  9  2  0  0  0
  9 10  1  0  0  0
 10  1  1  0  0  0
  1  2  2  0  0  0
  2  3  1  0  0  0
  3 23  1  0  0  0
 23 24  2  0  0  0
 23 25  2  0  0  0
 23 26  1  0  0  0
 26 28  1  0  0  0
 28 29  1  0  0  0
 29 30  1  0  0  0
 30 31  1  0  0  0
 30 32  1  0  0  0
 30 33  1  0  0  0
  3  4  2  0  0  0
  4  5  1  0  0  0
  5  6  2  0  0  0
  6  7  1  0  0  0
 10 11  2  0  0  0
 11 12  1  0  0  0
 12 13  2  0  0  0
 13 14  1  0  0  0
 20 21  1  0  0  0
 21 22  1  0  0  0
 22 18  2  0  0  0
 13  8  1  0  0  0
  6  1  1  0  0  0
 26 27  1  0  0  0
 33 34  1  0  0  0
 14 15  1  0  0  0
 14 16  1  0  0  0
M  END
> <minimizedAffinity>
-8.29344

> <CNNscore>
0.3639310896

> <CNNaffinity>
6.7769441605

> <CNN_VS>
2.4663407803

> <CNNaffinity_variance>
0.0818248242

$$$$
[H]OC(C([H])([H])[H])(C([H])([H])[H])C([H])([H])C([H])([H])N([H])S(=O)(=O)c1c([H])c([H])c(C([H])([H])[H])c(-c2c([H])nc(N([H])[H])c(-c3onc(C([H])([H])[H])c3[H])c2[H])c1[H]


 34 36  0  0  0  0  0  0  0  0999 V2000
  -85.2989   31.4575   -0.0126 C   0  0  0  0  0  0  0  0  0  0  0  0
  -85.3479   30.3187    0.8003 C   0  0  0  0  0  0  0  0  0  0  0  0
  -84.2317   29.8494    1.4601 C   0  0  0  0  0  0  0  0  0  0  0  0
  -83.0294   30.4967    1.3338 C   0  0  0  0  0  0  0  0  0  0  0  0
  -82.9543   31.6202    0.5400 C   0  0  0  0  0  0  0  0  0  0  0  0
  -84.0967   32.0959   -0.1316 C   0  0  0  0  0  0  0  0  0  0  0  0
  -83.9927   33.3220   -0.9671 C   0  0  0  0  0  0  0  0  0  0  0  0
  -88.5577   31.4780   -1.8174 C   0  0  0  0  0  0  0  0  0  0  0  0
  -87.4309   31.0079   -1.1273 C   0  0  0  0  0  0  0  0  0  0  0  0
  -86.4880   31.9257   -0.7152 C   0  0  0  0  0  0  0  0  0  0  0  0
  -86.6993   33.2603   -1.0023 C   0  0  0  0  0  0  0  0  0  0  0  0
  -87.7796   33.6928   -1.6614 N   0  0  0  0  0  0  0  0  0  0  0  0
  -88.7213   32.7978   -2.0755 C   0  0  0  0  0  0  0  0  0  0  0  0
  -89.8456   33.2985   -2.7677 N   0  0  0  0  0  0  0  0  0  0  0  0
  -89.8771   33.4175   -3.8066 H   0  0  0  0  0  0  0  0  0  0  0  0
  -90.6976   33.5706   -2.2481 H   0  0  0  0  0  0  0  0  0  0  0  0
  -92.1546   27.9028   -1.9934 C   0  0  0  0  0  0  0  0  0  0  0  0
  -91.0872   28.8871   -2.3461 C   0  0  0  0  0  0  0  0  0  0  0  0
  -90.3936   29.7373   -1.4636 C   0  0  0  0  0  0  0  0  0  0  0  0
  -89.5231   30.4495   -2.2279 C   0  0  0  0  0  0  0  0  0  0  0  0
  -89.6782   30.0588   -3.4859 O   0  0  0  0  0  0  0  0  0  0  0  0
  -90.5794   29.1590   -3.5512 N   0  0  0  0  0  0  0  0  0  0  0  0
  -84.3596   28.4082    2.4701 S   0  0  0  0  0  0  0  0  0  0  0  0
  -82.9541   27.8884    2.6675 O   0  0  0  0  0  0  0  0  0  0  0  0
  -85.0004   28.7699    3.7630 O   0  0  0  0  0  0  0  0  0  0  0  0
  -85.2280   27.2350    1.5903 N   0  0  0  0  0  0  0  0  0  0  0  0
  -84.6798   26.3278    1.6591 H   0  0  0  0  0  0  0  0  0  0  0  0
  -86.5704   27.0349    2.0971 C   0  0  0  0  0  0  0  0  0  0  0  0
  -87.6164   27.6032    1.1941 C   0  0  0  0  0  0  0  0  0  0  0  0
  -88.0252   26.6778    0.0973 C   0  0  0  0  0  0  0  0  0  0  0  0
  -89.4858   26.3657    0.0447 C   0  0  0  0  0  0  0  0  0  0  0  0
  -87.6071   27.2711   -1.2261 C   0  0  0  0  0  0  0  0  0  0  0  0
  -87.3349   25.4720    0.2360 O   0  0  0  0  0  0  0  0  0  0  0  0
  -87.0843   25.0905   -0.6291 H   0  0  0  0  0  0  0  0  0  0  0  0
 17 18  1  0  0  0
 18 19  1  0  0  0
 19 20  2  0  0  0
 20  8  1  0  0  0
  8  9  2  0  0  0
  9 10  1  0  0  0
 10  1  1  0  0  0
  1  2  2  0  0  0
  2  3  1  0  0  0
  3 23  1  0  0  0
 23 24  2  0  0  0
 23 25  2  0  0  0
 23 26  1  0  0  0
 26 28  1  0  0  0
 28 29  1  0  0  0
 29 30  1  0  0  0
 30 31  1  0  0  0
 30 32  1  0  0  0
 30 33  1  0  0  0
  3  4  2  0  0  0
  4  5  1  0  0  0
  5  6  2  0  0  0
  6  7  1  0  0  0
 10 11  2  0  0  0
 11 12  1  0  0  0
 12 13  2  0  0  0
 13 14  1  0  0  0
 20 21  1  0  0  0
 21 22  1  0  0  0
 22 18  2  0  0  0
 13  8  1  0  0  0
  6  1  1  0  0  0
 26 27  1  0  0  0
 33 34  1  0  0  0
 14 15  1  0  0  0
 14 16  1  0  0  0
M  END
> <minimizedAffinity>
-8.87946

> <CNNscore>
0.3350870907

> <CNNaffinity>
6.6311631203

> <CNN_VS>
2.2220170498

> <CNNaffinity_variance>
0.4565499723

$$$$
[H]/C(=C(/[H])c1c([H])c(OC([H])([H])[H])c([H])c(OC([H])([H])[H])c1[H])c1c([H])c([H])c(OC([H])([H])C([H])([H])[H])c([H])c1[H]


 21 22  0  0  0  0  0  0  0  0999 V2000
  -85.9631   33.8247   -1.7337 C   0  0  0  0  0  0  0  0  0  0  0  0
  -87.2006   33.7205   -2.1578 C   0  0  0  0  0  0  0  0  0  0  0  0
  -84.0181   31.0682    0.8793 C   0  0  0  0  0  0  0  0  0  0  0  0
  -83.3220   32.0745    0.2514 C   0  0  0  0  0  0  0  0  0  0  0  0
  -83.9741   32.9598   -0.5943 C   0  0  0  0  0  0  0  0  0  0  0  0
  -85.3248   32.8656   -0.8335 C   0  0  0  0  0  0  0  0  0  0  0  0
  -86.0206   31.8612   -0.2070 C   0  0  0  0  0  0  0  0  0  0  0  0
  -85.3696   30.9676    0.6448 C   0  0  0  0  0  0  0  0  0  0  0  0
  -83.4091   30.1574    1.7349 O   0  0  0  0  0  0  0  0  0  0  0  0
  -83.3909   27.9371    2.6468 C   0  0  0  0  0  0  0  0  0  0  0  0
  -84.2064   29.1834    2.3657 C   0  0  0  0  0  0  0  0  0  0  0  0
  -87.8030   34.6953   -3.0543 C   0  0  0  0  0  0  0  0  0  0  0  0
  -89.1986   34.7722   -3.0904 C   0  0  0  0  0  0  0  0  0  0  0  0
  -89.8763   35.6547   -3.8985 C   0  0  0  0  0  0  0  0  0  0  0  0
  -89.1572   36.5044   -4.7118 C   0  0  0  0  0  0  0  0  0  0  0  0
  -87.7864   36.4314   -4.6786 C   0  0  0  0  0  0  0  0  0  0  0  0
  -87.1037   35.5411   -3.8634 C   0  0  0  0  0  0  0  0  0  0  0  0
  -91.2582   35.6426   -3.8519 O   0  0  0  0  0  0  0  0  0  0  0  0
  -92.0691   36.7850   -3.8928 C   0  0  0  0  0  0  0  0  0  0  0  0
  -87.0816   37.2974   -5.5067 O   0  0  0  0  0  0  0  0  0  0  0  0
  -85.8650   37.8972   -5.1660 C   0  0  0  0  0  0  0  0  0  0  0  0
 10 11  1  0  0  0
 11  9  1  0  0  0
  9  3  1  0  0  0
  3  4  2  0  0  0
  4  5  1  0  0  0
  5  6  2  0  0  0
  6  1  1  0  0  0
  1  2  2  0  0  0
  2 12  1  0  0  0
 12 13  2  0  0  0
 13 14  1  0  0  0
 14 18  1  0  0  0
 18 19  1  0  0  0
 14 15  2  0  0  0
 15 16  1  0  0  0
 16 20  1  0  0  0
 20 21  1  0  0  0
 16 17  2  0  0  0
  6  7  1  0  0  0
  7  8  2  0  0  0
  8  3  1  0  0  0
 17 12  1  0  0  0
M  END
> <minimizedAffinity>
-6.63959

> <CNNscore>
0.4615870118

> <CNNaffinity>
5.1815729141

> <CNN_VS>
2.3917467594

> <CNNaffinity_variance>
0.2516652644

$$$$
[H]/C(=C(/[H])c1c([H])c(OC([H])([H])[H])c([H])c(OC([H])([H])[H])c1[H])c1c([H])c([H])c(OC([H])([H])C([H])([H])[H])c([H])c1[H]


 21 22  0  0  0  0  0  0  0  0999 V2000
  -86.1608   33.7219   -2.1106 C   0  0  0  0  0  0  0  0  0  0  0  0
  -87.4685   33.6990   -2.2175 C   0  0  0  0  0  0  0  0  0  0  0  0
  -84.0599   31.6170    0.9496 C   0  0  0  0  0  0  0  0  0  0  0  0
  -85.4161   31.4672    0.7775 C   0  0  0  0  0  0  0  0  0  0  0  0
  -86.0794   32.1611   -0.2238 C   0  0  0  0  0  0  0  0  0  0  0  0
  -85.4137   33.0146   -1.0717 C   0  0  0  0  0  0  0  0  0  0  0  0
  -84.0596   33.1648   -0.9006 C   0  0  0  0  0  0  0  0  0  0  0  0
  -83.3871   32.4691    0.1052 C   0  0  0  0  0  0  0  0  0  0  0  0
  -83.3515   30.9434    1.9381 O   0  0  0  0  0  0  0  0  0  0  0  0
  -83.6746   28.6116    2.4070 C   0  0  0  0  0  0  0  0  0  0  0  0
  -82.8636   29.6521    1.6608 C   0  0  0  0  0  0  0  0  0  0  0  0
  -88.1785   34.4160   -3.2657 C   0  0  0  0  0  0  0  0  0  0  0  0
  -87.4378   34.8708   -4.3608 C   0  0  0  0  0  0  0  0  0  0  0  0
  -88.0023   35.5589   -5.4091 C   0  0  0  0  0  0  0  0  0  0  0  0
  -89.3565   35.8161   -5.3883 C   0  0  0  0  0  0  0  0  0  0  0  0
  -90.0869   35.3707   -4.3142 C   0  0  0  0  0  0  0  0  0  0  0  0
  -89.5167   34.6768   -3.2574 C   0  0  0  0  0  0  0  0  0  0  0  0
  -87.1725   35.9608   -6.4396 O   0  0  0  0  0  0  0  0  0  0  0  0
  -87.2487   37.1999   -7.0900 C   0  0  0  0  0  0  0  0  0  0  0  0
  -91.4504   35.6410   -4.3141 O   0  0  0  0  0  0  0  0  0  0  0  0
  -92.0141   36.8469   -3.8854 C   0  0  0  0  0  0  0  0  0  0  0  0
 10 11  1  0  0  0
 11  9  1  0  0  0
  9  3  1  0  0  0
  3  4  2  0  0  0
  4  5  1  0  0  0
  5  6  2  0  0  0
  6  1  1  0  0  0
  1  2  2  0  0  0
  2 12  1  0  0  0
 12 13  2  0  0  0
 13 14  1  0  0  0
 14 18  1  0  0  0
 18 19  1  0  0  0
 14 15  2  0  0  0
 15 16  1  0  0  0
 16 20  1  0  0  0
 20 21  1  0  0  0
 16 17  2  0  0  0
  6  7  1  0  0  0
  7  8  2  0  0  0
  8  3  1  0  0  0
 17 12  1  0  0  0
M  END
> <minimizedAffinity>
-7.02911

> <CNNscore>
0.4327462614

> <CNNaffinity>
5.0413837433

> <CNN_VS>
2.1816399097

> <CNNaffinity_variance>
0.5536293983

$$$$
[H]/C(=C(/[H])c1c([H])c(OC([H])([H])[H])c([H])c(OC([H])([H])[H])c1[H])c1c([H])c([H])c(OC([H])([H])C([H])([H])[H])c([H])c1[H]


 21 22  0  0  0  0  0  0  0  0999 V2000
  -86.2455   33.7904   -1.5222 C   0  0  0  0  0  0  0  0  0  0  0  0
  -87.3860   33.4304   -2.0624 C   0  0  0  0  0  0  0  0  0  0  0  0
  -83.7920   31.1087    0.7134 C   0  0  0  0  0  0  0  0  0  0  0  0
  -85.1610   30.9791    0.6914 C   0  0  0  0  0  0  0  0  0  0  0  0
  -85.9398   31.8621   -0.0421 C   0  0  0  0  0  0  0  0  0  0  0  0
  -85.3790   32.8877   -0.7660 C   0  0  0  0  0  0  0  0  0  0  0  0
  -84.0122   33.0178   -0.7446 C   0  0  0  0  0  0  0  0  0  0  0  0
  -83.2237   32.1323   -0.0083 C   0  0  0  0  0  0  0  0  0  0  0  0
  -82.9699   30.2491    1.4331 O   0  0  0  0  0  0  0  0  0  0  0  0
  -82.5716   28.0801    2.3808 C   0  0  0  0  0  0  0  0  0  0  0  0
  -83.5618   29.2089    2.1747 C   0  0  0  0  0  0  0  0  0  0  0  0
  -88.2230   34.3573   -2.8089 C   0  0  0  0  0  0  0  0  0  0  0  0
  -87.7614   35.6671   -2.9701 C   0  0  0  0  0  0  0  0  0  0  0  0
  -88.4672   36.6276   -3.6559 C   0  0  0  0  0  0  0  0  0  0  0  0
  -89.6837   36.2940   -4.2122 C   0  0  0  0  0  0  0  0  0  0  0  0
  -90.1398   35.0083   -4.0557 C   0  0  0  0  0  0  0  0  0  0  0  0
  -89.4273   34.0403   -3.3639 C   0  0  0  0  0  0  0  0  0  0  0  0
  -87.9133   37.8909   -3.7521 O   0  0  0  0  0  0  0  0  0  0  0  0
  -87.7313   38.7678   -2.6741 C   0  0  0  0  0  0  0  0  0  0  0  0
  -91.3685   34.6940   -4.6248 O   0  0  0  0  0  0  0  0  0  0  0  0
  -91.7598   33.4019   -4.9901 C   0  0  0  0  0  0  0  0  0  0  0  0
 10 11  1  0  0  0
 11  9  1  0  0  0
  9  3  1  0  0  0
  3  4  2  0  0  0
  4  5  1  0  0  0
  5  6  2  0  0  0
  6  1  1  0  0  0
  1  2  2  0  0  0
  2 12  1  0  0  0
 12 13  2  0  0  0
 13 14  1  0  0  0
 14 18  1  0  0  0
 18 19  1  0  0  0
 14 15  2  0  0  0
 15 16  1  0  0  0
 16 20  1  0  0  0
 20 21  1  0  0  0
 16 17  2  0  0  0
  6  7  1  0  0  0
  7  8  2  0  0  0
  8  3  1  0  0  0
 17 12  1  0  0  0
M  END
> <minimizedAffinity>
-7.02078

> <CNNscore>
0.3914682567

> <CNNaffinity>
5.1001882553

> <CNN_VS>
1.9965617657

> <CNNaffinity_variance>
0.3336265385

$$$$
[H]/C(=C(/[H])c1c([H])c(OC([H])([H])[H])c([H])c(OC([H])([H])[H])c1[H])c1c([H])c([H])c(OC([H])([H])C([H])([H])[H])c([H])c1[H]


 21 22  0  0  0  0  0  0  0  0999 V2000
  -92.1482   25.4390   -2.8686 C   0  0  0  0  0  0  0  0  0  0  0  0
  -93.1338   24.7873   -2.2979 C   0  0  0  0  0  0  0  0  0  0  0  0
  -92.6104   29.0845   -5.0377 C   0  0  0  0  0  0  0  0  0  0  0  0
  -92.0377   29.0615   -3.7876 C   0  0  0  0  0  0  0  0  0  0  0  0
  -91.8971   27.8651   -3.0998 C   0  0  0  0  0  0  0  0  0  0  0  0
  -92.3200   26.6716   -3.6358 C   0  0  0  0  0  0  0  0  0  0  0  0
  -92.8920   26.6938   -4.8840 C   0  0  0  0  0  0  0  0  0  0  0  0
  -93.0360   27.8946   -5.5805 C   0  0  0  0  0  0  0  0  0  0  0  0
  -92.7728   30.2578   -5.7655 O   0  0  0  0  0  0  0  0  0  0  0  0
  -94.7344   31.0300   -6.9134 C   0  0  0  0  0  0  0  0  0  0  0  0
  -93.9637   30.9925   -5.6088 C   0  0  0  0  0  0  0  0  0  0  0  0
  -92.9248   23.5622   -1.5412 C   0  0  0  0  0  0  0  0  0  0  0  0
  -93.7199   22.4568   -1.8584 C   0  0  0  0  0  0  0  0  0  0  0  0
  -93.6103   21.2487   -1.2105 C   0  0  0  0  0  0  0  0  0  0  0  0
  -92.6790   21.1121   -0.2033 C   0  0  0  0  0  0  0  0  0  0  0  0
  -91.8965   22.1959    0.1106 C   0  0  0  0  0  0  0  0  0  0  0  0
  -92.0077   23.4139   -0.5433 C   0  0  0  0  0  0  0  0  0  0  0  0
  -94.4493   20.2241   -1.6081 O   0  0  0  0  0  0  0  0  0  0  0  0
  -94.2069   19.3672   -2.6904 C   0  0  0  0  0  0  0  0  0  0  0  0
  -90.9643   22.0357    1.1292 O   0  0  0  0  0  0  0  0  0  0  0  0
  -90.7708   22.9489    2.1705 C   0  0  0  0  0  0  0  0  0  0  0  0
 10 11  1  0  0  0
 11  9  1  0  0  0
  9  3  1  0  0  0
  3  4  2  0  0  0
  4  5  1  0  0  0
  5  6  2  0  0  0
  6  1  1  0  0  0
  1  2  2  0  0  0
  2 12  1  0  0  0
 12 13  2  0  0  0
 13 14  1  0  0  0
 14 18  1  0  0  0
 18 19  1  0  0  0
 14 15  2  0  0  0
 15 16  1  0  0  0
 16 20  1  0  0  0
 20 21  1  0  0  0
 16 17  2  0  0  0
  6  7  1  0  0  0
  7  8  2  0  0  0
  8  3  1  0  0  0
 17 12  1  0  0  0
M  END
> <minimizedAffinity>
-3.26151

> <CNNscore>
0.3801370561

> <CNNaffinity>
4.1717348099

> <CNN_VS>
1.5858310461

> <CNNaffinity_variance>
0.3654354513

$$$$
[H]/C(=C(/[H])c1c([H])c(OC([H])([H])[H])c([H])c(OC([H])([H])[H])c1[H])c1c([H])c([H])c(OC([H])([H])C([H])([H])[H])c([H])c1[H]


 21 22  0  0  0  0  0  0  0  0999 V2000
  -86.9749   34.0874   -2.4680 C   0  0  0  0  0  0  0  0  0  0  0  0
  -88.2203   34.2689   -2.8395 C   0  0  0  0  0  0  0  0  0  0  0  0
  -85.8324   31.1870    0.4460 C   0  0  0  0  0  0  0  0  0  0  0  0
  -87.0352   31.1036   -0.2158 C   0  0  0  0  0  0  0  0  0  0  0  0
  -87.3868   32.0574   -1.1595 C   0  0  0  0  0  0  0  0  0  0  0  0
  -86.5559   33.1095   -1.4651 C   0  0  0  0  0  0  0  0  0  0  0  0
  -85.3549   33.1935   -0.8049 C   0  0  0  0  0  0  0  0  0  0  0  0
  -84.9960   32.2366    0.1457 C   0  0  0  0  0  0  0  0  0  0  0  0
  -85.4361   30.2559    1.3992 O   0  0  0  0  0  0  0  0  0  0  0  0
  -85.1006   31.2953    3.5367 C   0  0  0  0  0  0  0  0  0  0  0  0
  -84.4557   30.6253    2.3398 C   0  0  0  0  0  0  0  0  0  0  0  0
  -88.6003   35.2527   -3.8419 C   0  0  0  0  0  0  0  0  0  0  0  0
  -88.4065   36.6030   -3.5358 C   0  0  0  0  0  0  0  0  0  0  0  0
  -88.7285   37.6186   -4.4054 C   0  0  0  0  0  0  0  0  0  0  0  0
  -89.2661   37.3013   -5.6345 C   0  0  0  0  0  0  0  0  0  0  0  0
  -89.4576   35.9759   -5.9382 C   0  0  0  0  0  0  0  0  0  0  0  0
  -89.1327   34.9524   -5.0606 C   0  0  0  0  0  0  0  0  0  0  0  0
  -88.4933   38.9183   -3.9961 O   0  0  0  0  0  0  0  0  0  0  0  0
  -87.7745   39.2766   -2.8476 C   0  0  0  0  0  0  0  0  0  0  0  0
  -90.0009   35.6790   -7.1828 O   0  0  0  0  0  0  0  0  0  0  0  0
  -90.3011   36.6342   -8.1592 C   0  0  0  0  0  0  0  0  0  0  0  0
 10 11  1  0  0  0
 11  9  1  0  0  0
  9  3  1  0  0  0
  3  4  2  0  0  0
  4  5  1  0  0  0
  5  6  2  0  0  0
  6  1  1  0  0  0
  1  2  2  0  0  0
  2 12  1  0  0  0
 12 13  2  0  0  0
 13 14  1  0  0  0
 14 18  1  0  0  0
 18 19  1  0  0  0
 14 15  2  0  0  0
 15 16  1  0  0  0
 16 20  1  0  0  0
 20 21  1  0  0  0
 16 17  2  0  0  0
  6  7  1  0  0  0
  7  8  2  0  0  0
  8  3  1  0  0  0
 17 12  1  0  0  0
M  END
> <minimizedAffinity>
-5.90634

> <CNNscore>
0.3693999052

> <CNNaffinity>
5.1452350616

> <CNN_VS>
1.9006493092

> <CNNaffinity_variance>
0.2261012495

$$$$
[H]/C(=C(/[H])c1c([H])c(OC([H])([H])[H])c([H])c(OC([H])([H])[H])c1[H])c1c([H])c([H])c(OC([H])([H])C([H])([H])[H])c([H])c1[H]


 21 22  0  0  0  0  0  0  0  0999 V2000
  -87.8589   27.6292   -0.9255 C   0  0  0  0  0  0  0  0  0  0  0  0
  -87.6904   28.7861   -0.3296 C   0  0  0  0  0  0  0  0  0  0  0  0
  -91.3553   26.4677   -3.0784 C   0  0  0  0  0  0  0  0  0  0  0  0
  -90.5730   25.5423   -2.4280 C   0  0  0  0  0  0  0  0  0  0  0  0
  -89.4403   25.9416   -1.7339 C   0  0  0  0  0  0  0  0  0  0  0  0
  -89.0619   27.2619   -1.6708 C   0  0  0  0  0  0  0  0  0  0  0  0
  -89.8424   28.1866   -2.3199 C   0  0  0  0  0  0  0  0  0  0  0  0
  -90.9831   27.7904   -3.0198 C   0  0  0  0  0  0  0  0  0  0  0  0
  -92.4988   26.1162   -3.7865 O   0  0  0  0  0  0  0  0  0  0  0  0
  -92.9018   26.7913   -6.0544 C   0  0  0  0  0  0  0  0  0  0  0  0
  -93.1266   27.0907   -4.5857 C   0  0  0  0  0  0  0  0  0  0  0  0
  -86.4782   29.1170    0.4040 C   0  0  0  0  0  0  0  0  0  0  0  0
  -85.9114   30.3772    0.1913 C   0  0  0  0  0  0  0  0  0  0  0  0
  -84.7678   30.7978    0.8289 C   0  0  0  0  0  0  0  0  0  0  0  0
  -84.1463   29.9472    1.7180 C   0  0  0  0  0  0  0  0  0  0  0  0
  -84.7006   28.7087    1.9292 C   0  0  0  0  0  0  0  0  0  0  0  0
  -85.8539   28.2853    1.2858 C   0  0  0  0  0  0  0  0  0  0  0  0
  -84.2969   32.0657    0.5409 O   0  0  0  0  0  0  0  0  0  0  0  0
  -83.1670   32.3398   -0.2417 C   0  0  0  0  0  0  0  0  0  0  0  0
  -84.0575   27.8675    2.8297 O   0  0  0  0  0  0  0  0  0  0  0  0
  -82.7046   27.5209    2.7554 C   0  0  0  0  0  0  0  0  0  0  0  0
 10 11  1  0  0  0
 11  9  1  0  0  0
  9  3  1  0  0  0
  3  4  2  0  0  0
  4  5  1  0  0  0
  5  6  2  0  0  0
  6  1  1  0  0  0
  1  2  2  0  0  0
  2 12  1  0  0  0
 12 13  2  0  0  0
 13 14  1  0  0  0
 14 18  1  0  0  0
 18 19  1  0  0  0
 14 15  2  0  0  0
 15 16  1  0  0  0
 16 20  1  0  0  0
 20 21  1  0  0  0
 16 17  2  0  0  0
  6  7  1  0  0  0
  7  8  2  0  0  0
  8  3  1  0  0  0
 17 12  1  0  0  0
M  END
> <minimizedAffinity>
-6.01541

> <CNNscore>
0.2948811650

> <CNNaffinity>
5.2662725449

> <CNN_VS>
1.5529246330

> <CNNaffinity_variance>
0.4034225345

$$$$
[H]/C(=C(/[H])c1c([H])c(OC([H])([H])[H])c([H])c(OC([H])([H])[H])c1[H])c1c([H])c([H])c(OC([H])([H])C([H])([H])[H])c([H])c1[H]


 21 22  0  0  0  0  0  0  0  0999 V2000
  -87.5797   28.8042   -1.3346 C   0  0  0  0  0  0  0  0  0  0  0  0
  -87.4570   29.4394   -0.1929 C   0  0  0  0  0  0  0  0  0  0  0  0
  -91.3418   27.9466   -3.1567 C   0  0  0  0  0  0  0  0  0  0  0  0
  -90.8964   29.2389   -3.0048 C   0  0  0  0  0  0  0  0  0  0  0  0
  -89.6700   29.4953   -2.4096 C   0  0  0  0  0  0  0  0  0  0  0  0
  -88.8633   28.4791   -1.9545 C   0  0  0  0  0  0  0  0  0  0  0  0
  -89.3072   27.1885   -2.1058 C   0  0  0  0  0  0  0  0  0  0  0  0
  -90.5403   26.9247   -2.7040 C   0  0  0  0  0  0  0  0  0  0  0  0
  -92.5627   27.6397   -3.7466 O   0  0  0  0  0  0  0  0  0  0  0  0
  -92.9034   27.5516   -6.1210 C   0  0  0  0  0  0  0  0  0  0  0  0
  -92.5793   26.7770   -4.8591 C   0  0  0  0  0  0  0  0  0  0  0  0
  -86.1615   29.7461    0.3943 C   0  0  0  0  0  0  0  0  0  0  0  0
  -85.6458   28.8524    1.3377 C   0  0  0  0  0  0  0  0  0  0  0  0
  -84.4325   29.0399    1.9573 C   0  0  0  0  0  0  0  0  0  0  0  0
  -83.6852   30.1543    1.6410 C   0  0  0  0  0  0  0  0  0  0  0  0
  -84.1889   31.0340    0.7148 C   0  0  0  0  0  0  0  0  0  0  0  0
  -85.4126   30.8441    0.0904 C   0  0  0  0  0  0  0  0  0  0  0  0
  -84.0221   28.0902    2.8748 O   0  0  0  0  0  0  0  0  0  0  0  0
  -82.7871   27.4285    2.8418 C   0  0  0  0  0  0  0  0  0  0  0  0
  -83.4187   32.1505    0.4111 O   0  0  0  0  0  0  0  0  0  0  0  0
  -83.7319   33.0745   -0.5910 C   0  0  0  0  0  0  0  0  0  0  0  0
 10 11  1  0  0  0
 11  9  1  0  0  0
  9  3  1  0  0  0
  3  4  2  0  0  0
  4  5  1  0  0  0
  5  6  2  0  0  0
  6  1  1  0  0  0
  1  2  2  0  0  0
  2 12  1  0  0  0
 12 13  2  0  0  0
 13 14  1  0  0  0
 14 18  1  0  0  0
 18 19  1  0  0  0
 14 15  2  0  0  0
 15 16  1  0  0  0
 16 20  1  0  0  0
 20 21  1  0  0  0
 16 17  2  0  0  0
  6  7  1  0  0  0
  7  8  2  0  0  0
  8  3  1  0  0  0
 17 12  1  0  0  0
M  END
> <minimizedAffinity>
-6.15754

> <CNNscore>
0.2726489305

> <CNNaffinity>
5.3341341019

> <CNN_VS>
1.4543459415

> <CNNaffinity_variance>
0.4742340446

$$$$
[H]/C(=C(/[H])c1c([H])c(OC([H])([H])[H])c([H])c(OC([H])([H])[H])c1[H])c1c([H])c([H])c(OC([H])([H])C([H])([H])[H])c([H])c1[H]


 21 22  0  0  0  0  0  0  0  0999 V2000
  -87.0699   31.7246   -0.5827 C   0  0  0  0  0  0  0  0  0  0  0  0
  -87.1109   30.4350   -0.8220 C   0  0  0  0  0  0  0  0  0  0  0  0
  -88.2415   34.7230   -3.3837 C   0  0  0  0  0  0  0  0  0  0  0  0
  -86.9173   34.4189   -3.1704 C   0  0  0  0  0  0  0  0  0  0  0  0
  -86.5584   33.4405   -2.2550 C   0  0  0  0  0  0  0  0  0  0  0  0
  -87.5020   32.7462   -1.5351 C   0  0  0  0  0  0  0  0  0  0  0  0
  -88.8243   33.0492   -1.7475 C   0  0  0  0  0  0  0  0  0  0  0  0
  -89.1911   34.0327   -2.6673 C   0  0  0  0  0  0  0  0  0  0  0  0
  -88.6501   35.6948   -4.2900 O   0  0  0  0  0  0  0  0  0  0  0  0
  -87.5538   36.3013   -6.3374 C   0  0  0  0  0  0  0  0  0  0  0  0
  -88.5793   35.4092   -5.6669 C   0  0  0  0  0  0  0  0  0  0  0  0
  -86.6719   29.4462    0.1509 C   0  0  0  0  0  0  0  0  0  0  0  0
  -85.3764   29.5663    0.6628 C   0  0  0  0  0  0  0  0  0  0  0  0
  -84.8553   28.6907    1.5863 C   0  0  0  0  0  0  0  0  0  0  0  0
  -85.6364   27.6462    2.0327 C   0  0  0  0  0  0  0  0  0  0  0  0
  -86.9093   27.5255    1.5319 C   0  0  0  0  0  0  0  0  0  0  0  0
  -87.4341   28.4090    0.6006 C   0  0  0  0  0  0  0  0  0  0  0  0
  -83.5611   28.9069    2.0228 O   0  0  0  0  0  0  0  0  0  0  0  0
  -82.7544   29.9832    1.6291 C   0  0  0  0  0  0  0  0  0  0  0  0
  -87.6791   26.4653    1.9959 O   0  0  0  0  0  0  0  0  0  0  0  0
  -88.8634   26.0289    1.3934 C   0  0  0  0  0  0  0  0  0  0  0  0
 10 11  1  0  0  0
 11  9  1  0  0  0
  9  3  1  0  0  0
  3  4  2  0  0  0
  4  5  1  0  0  0
  5  6  2  0  0  0
  6  1  1  0  0  0
  1  2  2  0  0  0
  2 12  1  0  0  0
 12 13  2  0  0  0
 13 14  1  0  0  0
 14 18  1  0  0  0
 18 19  1  0  0  0
 14 15  2  0  0  0
 15 16  1  0  0  0
 16 20  1  0  0  0
 20 21  1  0  0  0
 16 17  2  0  0  0
  6  7  1  0  0  0
  7  8  2  0  0  0
  8  3  1  0  0  0
 17 12  1  0  0  0
M  END
> <minimizedAffinity>
-6.73855

> <CNNscore>
0.2421468943

> <CNNaffinity>
5.1724424362

> <CNN_VS>
1.2524908781

> <CNNaffinity_variance>
0.4480291307

$$$$
[H]/C(=C(/[H])c1c([H])c(OC([H])([H])[H])c([H])c(OC([H])([H])[H])c1[H])c1c([H])c([H])c(OC([H])([H])C([H])([H])[H])c([H])c1[H]


 21 22  0  0  0  0  0  0  0  0999 V2000
  -86.7458   33.0736   -1.4095 C   0  0  0  0  0  0  0  0  0  0  0  0
  -88.0092   32.8878   -1.7118 C   0  0  0  0  0  0  0  0  0  0  0  0
  -84.6749   30.6599    1.4355 C   0  0  0  0  0  0  0  0  0  0  0  0
  -85.9177   30.3063    0.9645 C   0  0  0  0  0  0  0  0  0  0  0  0
  -86.5734   31.1057    0.0397 C   0  0  0  0  0  0  0  0  0  0  0  0
  -86.0120   32.2675   -0.4351 C   0  0  0  0  0  0  0  0  0  0  0  0
  -84.7712   32.6213    0.0347 C   0  0  0  0  0  0  0  0  0  0  0  0
  -84.1069   31.8208    0.9653 C   0  0  0  0  0  0  0  0  0  0  0  0
  -83.9789   29.8918    2.3620 O   0  0  0  0  0  0  0  0  0  0  0  0
  -82.7462   27.8376    2.5110 C   0  0  0  0  0  0  0  0  0  0  0  0
  -82.7959   29.2464    1.9543 C   0  0  0  0  0  0  0  0  0  0  0  0
  -88.7074   33.7106   -2.6877 C   0  0  0  0  0  0  0  0  0  0  0  0
  -89.6660   33.0913   -3.4954 C   0  0  0  0  0  0  0  0  0  0  0  0
  -90.3868   33.7690   -4.4506 C   0  0  0  0  0  0  0  0  0  0  0  0
  -90.1614   35.1176   -4.6267 C   0  0  0  0  0  0  0  0  0  0  0  0
  -89.2206   35.7288   -3.8349 C   0  0  0  0  0  0  0  0  0  0  0  0
  -88.4941   35.0446   -2.8719 C   0  0  0  0  0  0  0  0  0  0  0  0
  -91.3093   33.0539   -5.1918 O   0  0  0  0  0  0  0  0  0  0  0  0
  -92.1307   32.0394   -4.6813 C   0  0  0  0  0  0  0  0  0  0  0  0
  -89.0098   37.0889   -4.0295 O   0  0  0  0  0  0  0  0  0  0  0  0
  -87.9782   37.8195   -3.4313 C   0  0  0  0  0  0  0  0  0  0  0  0
 10 11  1  0  0  0
 11  9  1  0  0  0
  9  3  1  0  0  0
  3  4  2  0  0  0
  4  5  1  0  0  0
  5  6  2  0  0  0
  6  1  1  0  0  0
  1  2  2  0  0  0
  2 12  1  0  0  0
 12 13  2  0  0  0
 13 14  1  0  0  0
 14 18  1  0  0  0
 18 19  1  0  0  0
 14 15  2  0  0  0
 15 16  1  0  0  0
 16 20  1  0  0  0
 20 21  1  0  0  0
 16 17  2  0  0  0
  6  7  1  0  0  0
  7  8  2  0  0  0
  8  3  1  0  0  0
 17 12  1  0  0  0
M  END
> <minimizedAffinity>
-6.53362

> <CNNscore>
0.2419773936

> <CNNaffinity>
5.0900335312

> <CNN_VS>
1.2316730022

> <CNNaffinity_variance>
0.2786665559

$$$$
[H]/C(C(=O)N(C([H])([H])[H])C([H])([H])c1sc2c([H])c([H])c([H])c([H])c2c1C([H])([H])[H])=C(/[H])c1c([H])nc2c(c1[H])C([H])([H])N([H])C([H])([H])C([H])([H])N2[H]


 30 33  0  0  0  0  0  0  0  0999 V2000
  -86.5165   32.8709   -1.3720 N   0  0  0  0  0  0  0  0  0  0  0  0
  -85.3275   33.6263   -1.0842 C   0  0  0  0  0  0  0  0  0  0  0  0
  -87.4974   33.5168   -2.2588 C   0  0  0  0  0  0  0  0  0  0  0  0
  -88.6699   33.1481   -2.3261 O   0  0  0  0  0  0  0  0  0  0  0  0
  -87.0078   34.5886   -3.1177 C   0  0  0  0  0  0  0  0  0  0  0  0
  -87.8663   34.9974   -4.0658 C   0  0  0  0  0  0  0  0  0  0  0  0
  -87.5182   36.0635   -5.0236 C   0  0  0  0  0  0  0  0  0  0  0  0
  -87.9332   35.9544   -6.3320 C   0  0  0  0  0  0  0  0  0  0  0  0
  -87.5172   36.8198   -7.3165 N   0  0  0  0  0  0  0  0  0  0  0  0
  -86.6720   37.8047   -6.9704 C   0  0  0  0  0  0  0  0  0  0  0  0
  -86.2588   37.9305   -5.6580 C   0  0  0  0  0  0  0  0  0  0  0  0
  -86.6705   37.0684   -4.6735 C   0  0  0  0  0  0  0  0  0  0  0  0
  -85.3387   39.0129   -5.1760 C   0  0  0  0  0  0  0  0  0  0  0  0
  -84.1178   38.7741   -5.8936 N   0  0  0  0  0  0  0  0  0  0  0  0
  -83.9919   39.3663   -7.1619 C   0  0  0  0  0  0  0  0  0  0  0  0
  -85.0994   39.4868   -8.1012 C   0  0  0  0  0  0  0  0  0  0  0  0
  -86.2007   38.5987   -8.0812 N   0  0  0  0  0  0  0  0  0  0  0  0
  -83.9385   37.7426   -5.8552 H   0  0  0  0  0  0  0  0  0  0  0  0
  -86.7336   38.4537   -8.9637 H   0  0  0  0  0  0  0  0  0  0  0  0
  -86.8671   31.6528   -0.8536 C   0  0  0  0  0  0  0  0  0  0  0  0
  -87.8111   28.9890    0.5796 C   0  0  0  0  0  0  0  0  0  0  0  0
  -86.4052   29.6236    0.6977 C   0  0  0  0  0  0  0  0  0  0  0  0
  -86.2446   30.8825    0.2194 C   0  0  0  0  0  0  0  0  0  0  0  0
  -84.5670   31.2103    0.7524 S   0  0  0  0  0  0  0  0  0  0  0  0
  -84.2312   29.7214    1.5018 C   0  0  0  0  0  0  0  0  0  0  0  0
  -83.0905   29.1690    2.1095 C   0  0  0  0  0  0  0  0  0  0  0  0
  -83.0825   27.8847    2.5901 C   0  0  0  0  0  0  0  0  0  0  0  0
  -84.2677   27.1870    2.4355 C   0  0  0  0  0  0  0  0  0  0  0  0
  -85.3590   27.7049    1.8566 C   0  0  0  0  0  0  0  0  0  0  0  0
  -85.3881   29.0240    1.3468 C   0  0  0  0  0  0  0  0  0  0  0  0
 21 22  1  0  0  0
 22 23  2  0  0  0
 23 20  1  0  0  0
 20  1  1  0  0  0
  1  2  1  0  0  0
  1  3  1  0  0  0
  3  4  2  0  0  0
  3  5  1  0  0  0
  5  6  2  0  0  0
  6  7  1  0  0  0
  7  8  2  0  0  0
  8  9  1  0  0  0
  9 10  2  0  0  0
 10 11  1  0  0  0
 11 12  2  0  0  0
 11 13  1  0  0  0
 13 14  1  0  0  0
 14 15  1  0  0  0
 15 16  1  0  0  0
 16 17  1  0  0  0
 23 24  1  0  0  0
 24 25  1  0  0  0
 25 26  2  0  0  0
 26 27  1  0  0  0
 27 28  2  0  0  0
 28 29  1  0  0  0
 29 30  2  0  0  0
 30 22  1  0  0  0
 12  7  1  0  0  0
 30 25  1  0  0  0
 17 10  1  0  0  0
 14 18  1  0  0  0
 17 19  1  0  0  0
M  END
> <minimizedAffinity>
-8.90452

> <CNNscore>
0.1936398447

> <CNNaffinity>
5.6383504868

> <CNN_VS>
1.0918092728

> <CNNaffinity_variance>
0.2214501649

$$$$
[H]/C(C(=O)N(C([H])([H])[H])C([H])([H])c1sc2c([H])c([H])c([H])c([H])c2c1C([H])([H])[H])=C(/[H])c1c([H])nc2c(c1[H])C([H])([H])N([H])C([H])([H])C([H])([H])N2[H]


 30 33  0  0  0  0  0  0  0  0999 V2000
  -89.5792   30.5805   -1.4557 N   0  0  0  0  0  0  0  0  0  0  0  0
  -90.0369   30.8916   -2.7826 C   0  0  0  0  0  0  0  0  0  0  0  0
  -90.2265   29.4344   -0.7975 C   0  0  0  0  0  0  0  0  0  0  0  0
  -90.1787   29.2588    0.4200 O   0  0  0  0  0  0  0  0  0  0  0  0
  -90.8860   28.4616   -1.6606 C   0  0  0  0  0  0  0  0  0  0  0  0
  -92.1808   28.2384   -1.3838 C   0  0  0  0  0  0  0  0  0  0  0  0
  -92.9866   27.2738   -2.1554 C   0  0  0  0  0  0  0  0  0  0  0  0
  -93.0873   25.9742   -1.7116 C   0  0  0  0  0  0  0  0  0  0  0  0
  -93.6835   24.9814   -2.4535 N   0  0  0  0  0  0  0  0  0  0  0  0
  -94.1817   25.3103   -3.6567 C   0  0  0  0  0  0  0  0  0  0  0  0
  -94.0966   26.6139   -4.1064 C   0  0  0  0  0  0  0  0  0  0  0  0
  -93.5014   27.6065   -3.3700 C   0  0  0  0  0  0  0  0  0  0  0  0
  -94.6471   27.0770   -5.4229 C   0  0  0  0  0  0  0  0  0  0  0  0
  -93.8929   26.3345   -6.3937 N   0  0  0  0  0  0  0  0  0  0  0  0
  -94.3776   25.0640   -6.7485 C   0  0  0  0  0  0  0  0  0  0  0  0
  -94.9906   24.1476   -5.7956 C   0  0  0  0  0  0  0  0  0  0  0  0
  -94.6904   24.1901   -4.4136 N   0  0  0  0  0  0  0  0  0  0  0  0
  -92.8902   26.3691   -6.0921 H   0  0  0  0  0  0  0  0  0  0  0  0
  -94.8079   23.3187   -3.8563 H   0  0  0  0  0  0  0  0  0  0  0  0
  -88.6632   31.2770   -0.7133 C   0  0  0  0  0  0  0  0  0  0  0  0
  -86.2488   33.3029   -1.0419 C   0  0  0  0  0  0  0  0  0  0  0  0
  -86.1589   31.8914   -0.4151 C   0  0  0  0  0  0  0  0  0  0  0  0
  -87.2250   31.0678   -0.5723 C   0  0  0  0  0  0  0  0  0  0  0  0
  -86.5654   29.5606    0.1342 S   0  0  0  0  0  0  0  0  0  0  0  0
  -85.0243   30.1273    0.5762 C   0  0  0  0  0  0  0  0  0  0  0  0
  -83.9303   29.5575    1.2502 C   0  0  0  0  0  0  0  0  0  0  0  0
  -82.8025   30.2843    1.5334 C   0  0  0  0  0  0  0  0  0  0  0  0
  -82.8238   31.6009    1.1075 C   0  0  0  0  0  0  0  0  0  0  0  0
  -83.8622   32.1525    0.4658 C   0  0  0  0  0  0  0  0  0  0  0  0
  -85.0385   31.4248    0.1699 C   0  0  0  0  0  0  0  0  0  0  0  0
 21 22  1  0  0  0
 22 23  2  0  0  0
 23 20  1  0  0  0
 20  1  1  0  0  0
  1  2  1  0  0  0
  1  3  1  0  0  0
  3  4  2  0  0  0
  3  5  1  0  0  0
  5  6  2  0  0  0
  6  7  1  0  0  0
  7  8  2  0  0  0
  8  9  1  0  0  0
  9 10  2  0  0  0
 10 11  1  0  0  0
 11 12  2  0  0  0
 11 13  1  0  0  0
 13 14  1  0  0  0
 14 15  1  0  0  0
 15 16  1  0  0  0
 16 17  1  0  0  0
 23 24  1  0  0  0
 24 25  1  0  0  0
 25 26  2  0  0  0
 26 27  1  0  0  0
 27 28  2  0  0  0
 28 29  1  0  0  0
 29 30  2  0  0  0
 30 22  1  0  0  0
 12  7  1  0  0  0
 30 25  1  0  0  0
 17 10  1  0  0  0
 14 18  1  0  0  0
 17 19  1  0  0  0
M  END
> <minimizedAffinity>
-7.57837

> <CNNscore>
0.1761679351

> <CNNaffinity>
5.4818964005

> <CNN_VS>
0.9657343626

> <CNNaffinity_variance>
0.1128334850

$$$$
[H]/C(C(=O)N(C([H])([H])[H])C([H])([H])c1sc2c([H])c([H])c([H])c([H])c2c1C([H])([H])[H])=C(/[H])c1c([H])nc2c(c1[H])C([H])([H])N([H])C([H])([H])C([H])([H])N2[H]


 30 33  0  0  0  0  0  0  0  0999 V2000
  -87.9111   32.2151   -3.0123 N   0  0  0  0  0  0  0  0  0  0  0  0
  -87.5390   31.7017   -4.3027 C   0  0  0  0  0  0  0  0  0  0  0  0
  -89.3230   32.0514   -2.6308 C   0  0  0  0  0  0  0  0  0  0  0  0
  -89.8451   32.7122   -1.7330 O   0  0  0  0  0  0  0  0  0  0  0  0
  -90.0799   31.0157   -3.3239 C   0  0  0  0  0  0  0  0  0  0  0  0
  -91.4148   31.1472   -3.2633 C   0  0  0  0  0  0  0  0  0  0  0  0
  -92.3224   30.1755   -3.9014 C   0  0  0  0  0  0  0  0  0  0  0  0
  -92.0516   28.8299   -3.7926 C   0  0  0  0  0  0  0  0  0  0  0  0
  -92.7540   27.8735   -4.4879 N   0  0  0  0  0  0  0  0  0  0  0  0
  -93.7399   28.2865   -5.3014 C   0  0  0  0  0  0  0  0  0  0  0  0
  -94.0278   29.6335   -5.4087 C   0  0  0  0  0  0  0  0  0  0  0  0
  -93.3285   30.5904   -4.7179 C   0  0  0  0  0  0  0  0  0  0  0  0
  -95.1257   30.1830   -6.2708 C   0  0  0  0  0  0  0  0  0  0  0  0
  -94.7377   29.8129   -7.6030 N   0  0  0  0  0  0  0  0  0  0  0  0
  -95.1430   28.5479   -8.0620 C   0  0  0  0  0  0  0  0  0  0  0  0
  -95.1802   27.3640   -7.2133 C   0  0  0  0  0  0  0  0  0  0  0  0
  -94.3518   27.2306   -6.0741 N   0  0  0  0  0  0  0  0  0  0  0  0
  -93.7146   30.0207   -7.6913 H   0  0  0  0  0  0  0  0  0  0  0  0
  -94.1093   26.2714   -5.7500 H   0  0  0  0  0  0  0  0  0  0  0  0
  -87.1145   32.9024   -2.1357 C   0  0  0  0  0  0  0  0  0  0  0  0
  -87.6374   30.4677   -0.1760 C   0  0  0  0  0  0  0  0  0  0  0  0
  -86.3098   31.2519   -0.3010 C   0  0  0  0  0  0  0  0  0  0  0  0
  -86.3312   32.4105   -1.0058 C   0  0  0  0  0  0  0  0  0  0  0  0
  -84.6690   32.9989   -0.6951 S   0  0  0  0  0  0  0  0  0  0  0  0
  -84.1096   31.7158    0.2703 C   0  0  0  0  0  0  0  0  0  0  0  0
  -82.8717   31.4034    0.8582 C   0  0  0  0  0  0  0  0  0  0  0  0
  -82.6802   30.2374    1.5542 C   0  0  0  0  0  0  0  0  0  0  0  0
  -83.7845   29.4071    1.6342 C   0  0  0  0  0  0  0  0  0  0  0  0
  -84.9673   29.6961    1.0760 C   0  0  0  0  0  0  0  0  0  0  0  0
  -85.1860   30.8885    0.3472 C   0  0  0  0  0  0  0  0  0  0  0  0
 21 22  1  0  0  0
 22 23  2  0  0  0
 23 20  1  0  0  0
 20  1  1  0  0  0
  1  2  1  0  0  0
  1  3  1  0  0  0
  3  4  2  0  0  0
  3  5  1  0  0  0
  5  6  2  0  0  0
  6  7  1  0  0  0
  7  8  2  0  0  0
  8  9  1  0  0  0
  9 10  2  0  0  0
 10 11  1  0  0  0
 11 12  2  0  0  0
 11 13  1  0  0  0
 13 14  1  0  0  0
 14 15  1  0  0  0
 15 16  1  0  0  0
 16 17  1  0  0  0
 23 24  1  0  0  0
 24 25  1  0  0  0
 25 26  2  0  0  0
 26 27  1  0  0  0
 27 28  2  0  0  0
 28 29  1  0  0  0
 29 30  2  0  0  0
 30 22  1  0  0  0
 12  7  1  0  0  0
 30 25  1  0  0  0
 17 10  1  0  0  0
 14 18  1  0  0  0
 17 19  1  0  0  0
M  END
> <minimizedAffinity>
-8.09434

> <CNNscore>
0.1720286161

> <CNNaffinity>
5.6008033752

> <CNN_VS>
0.9634984732

> <CNNaffinity_variance>
0.1360436976

$$$$
[H]/C(C(=O)N(C([H])([H])[H])C([H])([H])c1sc2c([H])c([H])c([H])c([H])c2c1C([H])([H])[H])=C(/[H])c1c([H])nc2c(c1[H])C([H])([H])N([H])C([H])([H])C([H])([H])N2[H]


 30 33  0  0  0  0  0  0  0  0999 V2000
  -88.5567   31.2667   -2.8486 N   0  0  0  0  0  0  0  0  0  0  0  0
  -87.9641   30.8032   -4.0739 C   0  0  0  0  0  0  0  0  0  0  0  0
  -89.8846   30.7225   -2.5229 C   0  0  0  0  0  0  0  0  0  0  0  0
  -90.6357   31.2578   -1.7077 O   0  0  0  0  0  0  0  0  0  0  0  0
  -90.2616   29.4687   -3.1650 C   0  0  0  0  0  0  0  0  0  0  0  0
  -91.0017   28.6409   -2.4102 C   0  0  0  0  0  0  0  0  0  0  0  0
  -91.4532   27.3281   -2.9081 C   0  0  0  0  0  0  0  0  0  0  0  0
  -92.4292   27.2758   -3.8780 C   0  0  0  0  0  0  0  0  0  0  0  0
  -93.0147   26.0974   -4.2779 N   0  0  0  0  0  0  0  0  0  0  0  0
  -92.6064   24.9618   -3.6881 C   0  0  0  0  0  0  0  0  0  0  0  0
  -91.6191   25.0018   -2.7223 C   0  0  0  0  0  0  0  0  0  0  0  0
  -91.0339   26.1753   -2.3198 C   0  0  0  0  0  0  0  0  0  0  0  0
  -91.0835   23.7835   -2.0298 C   0  0  0  0  0  0  0  0  0  0  0  0
  -92.2207   23.2556   -1.3294 N   0  0  0  0  0  0  0  0  0  0  0  0
  -93.0541   22.3696   -2.0333 C   0  0  0  0  0  0  0  0  0  0  0  0
  -93.3754   22.5264   -3.4460 C   0  0  0  0  0  0  0  0  0  0  0  0
  -93.3471   23.7875   -4.0868 N   0  0  0  0  0  0  0  0  0  0  0  0
  -92.7029   24.0675   -0.8755 H   0  0  0  0  0  0  0  0  0  0  0  0
  -93.9450   23.9273   -4.9275 H   0  0  0  0  0  0  0  0  0  0  0  0
  -88.0544   32.2112   -1.9936 C   0  0  0  0  0  0  0  0  0  0  0  0
  -87.4223   29.9120    0.0933 C   0  0  0  0  0  0  0  0  0  0  0  0
  -86.4710   31.0733   -0.2802 C   0  0  0  0  0  0  0  0  0  0  0  0
  -86.9880   32.0982   -1.0025 C   0  0  0  0  0  0  0  0  0  0  0  0
  -85.5933   33.2209   -0.9992 S   0  0  0  0  0  0  0  0  0  0  0  0
  -84.4945   32.2761   -0.1096 C   0  0  0  0  0  0  0  0  0  0  0  0
  -83.1490   32.4352    0.2646 C   0  0  0  0  0  0  0  0  0  0  0  0
  -82.4728   31.4582    0.9491 C   0  0  0  0  0  0  0  0  0  0  0  0
  -83.2079   30.3225    1.2411 C   0  0  0  0  0  0  0  0  0  0  0  0
  -84.4898   30.1618    0.8874 C   0  0  0  0  0  0  0  0  0  0  0  0
  -85.2051   31.1522    0.1745 C   0  0  0  0  0  0  0  0  0  0  0  0
 21 22  1  0  0  0
 22 23  2  0  0  0
 23 20  1  0  0  0
 20  1  1  0  0  0
  1  2  1  0  0  0
  1  3  1  0  0  0
  3  4  2  0  0  0
  3  5  1  0  0  0
  5  6  2  0  0  0
  6  7  1  0  0  0
  7  8  2  0  0  0
  8  9  1  0  0  0
  9 10  2  0  0  0
 10 11  1  0  0  0
 11 12  2  0  0  0
 11 13  1  0  0  0
 13 14  1  0  0  0
 14 15  1  0  0  0
 15 16  1  0  0  0
 16 17  1  0  0  0
 23 24  1  0  0  0
 24 25  1  0  0  0
 25 26  2  0  0  0
 26 27  1  0  0  0
 27 28  2  0  0  0
 28 29  1  0  0  0
 29 30  2  0  0  0
 30 22  1  0  0  0
 12  7  1  0  0  0
 30 25  1  0  0  0
 17 10  1  0  0  0
 14 18  1  0  0  0
 17 19  1  0  0  0
M  END
> <minimizedAffinity>
-8.24255

> <CNNscore>
0.1541810185

> <CNNaffinity>
5.4470419884

> <CNN_VS>
0.8398304582

> <CNNaffinity_variance>
0.2280511558

$$$$
[H]/C(C(=O)N(C([H])([H])[H])C([H])([H])c1sc2c([H])c([H])c([H])c([H])c2c1C([H])([H])[H])=C(/[H])c1c([H])nc2c(c1[H])C([H])([H])N([H])C([H])([H])C([H])([H])N2[H]


 30 33  0  0  0  0  0  0  0  0999 V2000
  -87.1770   33.1383   -1.6635 N   0  0  0  0  0  0  0  0  0  0  0  0
  -86.8197   33.6833   -2.9451 C   0  0  0  0  0  0  0  0  0  0  0  0
  -88.6080   32.8714   -1.4473 C   0  0  0  0  0  0  0  0  0  0  0  0
  -89.0898   32.7237   -0.3242 O   0  0  0  0  0  0  0  0  0  0  0  0
  -89.4403   32.7231   -2.6354 C   0  0  0  0  0  0  0  0  0  0  0  0
  -90.1725   31.5986   -2.6825 C   0  0  0  0  0  0  0  0  0  0  0  0
  -91.0562   31.2924   -3.8229 C   0  0  0  0  0  0  0  0  0  0  0  0
  -91.4551   32.3122   -4.6578 C   0  0  0  0  0  0  0  0  0  0  0  0
  -92.3998   32.1381   -5.6420 N   0  0  0  0  0  0  0  0  0  0  0  0
  -92.9450   30.9183   -5.7800 C   0  0  0  0  0  0  0  0  0  0  0  0
  -92.5431   29.8851   -4.9554 C   0  0  0  0  0  0  0  0  0  0  0  0
  -91.6022   30.0552   -3.9717 C   0  0  0  0  0  0  0  0  0  0  0  0
  -93.0774   28.4867   -5.0540 C   0  0  0  0  0  0  0  0  0  0  0  0
  -94.4760   28.6292   -4.7606 N   0  0  0  0  0  0  0  0  0  0  0  0
  -95.3306   28.9274   -5.8356 C   0  0  0  0  0  0  0  0  0  0  0  0
  -94.9624   29.8228   -6.9248 C   0  0  0  0  0  0  0  0  0  0  0  0
  -94.0034   30.8499   -6.7606 N   0  0  0  0  0  0  0  0  0  0  0  0
  -94.5503   29.2664   -3.9323 H   0  0  0  0  0  0  0  0  0  0  0  0
  -94.0614   31.6830   -7.3823 H   0  0  0  0  0  0  0  0  0  0  0  0
  -86.3434   32.9112   -0.6010 C   0  0  0  0  0  0  0  0  0  0  0  0
  -83.2266   32.4262   -0.2980 C   0  0  0  0  0  0  0  0  0  0  0  0
  -84.3372   31.4634    0.1844 C   0  0  0  0  0  0  0  0  0  0  0  0
  -85.6030   31.7062   -0.2381 C   0  0  0  0  0  0  0  0  0  0  0  0
  -86.4343   30.2589    0.4099 S   0  0  0  0  0  0  0  0  0  0  0  0
  -85.1092   29.5083    1.1661 C   0  0  0  0  0  0  0  0  0  0  0  0
  -84.9594   28.3543    1.9545 C   0  0  0  0  0  0  0  0  0  0  0  0
  -83.7500   28.0089    2.5011 C   0  0  0  0  0  0  0  0  0  0  0  0
  -82.7043   28.8699    2.2173 C   0  0  0  0  0  0  0  0  0  0  0  0
  -82.8382   29.9722    1.4682 C   0  0  0  0  0  0  0  0  0  0  0  0
  -84.0768   30.3525    0.9009 C   0  0  0  0  0  0  0  0  0  0  0  0
 21 22  1  0  0  0
 22 23  2  0  0  0
 23 20  1  0  0  0
 20  1  1  0  0  0
  1  2  1  0  0  0
  1  3  1  0  0  0
  3  4  2  0  0  0
  3  5  1  0  0  0
  5  6  2  0  0  0
  6  7  1  0  0  0
  7  8  2  0  0  0
  8  9  1  0  0  0
  9 10  2  0  0  0
 10 11  1  0  0  0
 11 12  2  0  0  0
 11 13  1  0  0  0
 13 14  1  0  0  0
 14 15  1  0  0  0
 15 16  1  0  0  0
 16 17  1  0  0  0
 23 24  1  0  0  0
 24 25  1  0  0  0
 25 26  2  0  0  0
 26 27  1  0  0  0
 27 28  2  0  0  0
 28 29  1  0  0  0
 29 30  2  0  0  0
 30 22  1  0  0  0
 12  7  1  0  0  0
 30 25  1  0  0  0
 17 10  1  0  0  0
 14 18  1  0  0  0
 17 19  1  0  0  0
M  END
> <minimizedAffinity>
-9.17260

> <CNNscore>
0.1453041136

> <CNNaffinity>
5.4485440254

> <CNN_VS>
0.7916958332

> <CNNaffinity_variance>
0.1531954408

$$$$
[H]/C(C(=O)N(C([H])([H])[H])C([H])([H])c1sc2c([H])c([H])c([H])c([H])c2c1C([H])([H])[H])=C(/[H])c1c([H])nc2c(c1[H])C([H])([H])N([H])C([H])([H])C([H])([H])N2[H]


 30 33  0  0  0  0  0  0  0  0999 V2000
  -89.2393   31.9436   -2.2069 N   0  0  0  0  0  0  0  0  0  0  0  0
  -89.1701   32.5458   -0.9032 C   0  0  0  0  0  0  0  0  0  0  0  0
  -88.9226   30.5081   -2.2768 C   0  0  0  0  0  0  0  0  0  0  0  0
  -88.6247   29.9484   -3.3319 O   0  0  0  0  0  0  0  0  0  0  0  0
  -89.0370   29.7443   -1.0400 C   0  0  0  0  0  0  0  0  0  0  0  0
  -90.2888   29.4045   -0.6928 C   0  0  0  0  0  0  0  0  0  0  0  0
  -90.5758   28.6428    0.5370 C   0  0  0  0  0  0  0  0  0  0  0  0
  -91.1267   29.2935    1.6183 C   0  0  0  0  0  0  0  0  0  0  0  0
  -91.2754   28.6944    2.8473 N   0  0  0  0  0  0  0  0  0  0  0  0
  -90.8608   27.4238    2.9805 C   0  0  0  0  0  0  0  0  0  0  0  0
  -90.3176   26.7578    1.8987 C   0  0  0  0  0  0  0  0  0  0  0  0
  -90.1664   27.3524    0.6717 C   0  0  0  0  0  0  0  0  0  0  0  0
  -89.8525   25.3324    1.9478 C   0  0  0  0  0  0  0  0  0  0  0  0
  -88.7828   25.3503    2.9059 N   0  0  0  0  0  0  0  0  0  0  0  0
  -89.1284   25.1820    4.2576 C   0  0  0  0  0  0  0  0  0  0  0  0
  -90.3311   25.7510    4.8519 C   0  0  0  0  0  0  0  0  0  0  0  0
  -90.9523   26.9087    4.3269 N   0  0  0  0  0  0  0  0  0  0  0  0
  -88.1940   26.1896    2.6897 H   0  0  0  0  0  0  0  0  0  0  0  0
  -91.5215   27.4976    4.9695 H   0  0  0  0  0  0  0  0  0  0  0  0
  -89.4944   32.5740   -3.3956 C   0  0  0  0  0  0  0  0  0  0  0  0
  -91.4441   34.6914   -4.7209 C   0  0  0  0  0  0  0  0  0  0  0  0
  -90.0713   35.0097   -4.0829 C   0  0  0  0  0  0  0  0  0  0  0  0
  -89.2630   33.9628   -3.7824 C   0  0  0  0  0  0  0  0  0  0  0  0
  -87.7871   34.8401   -3.2748 S   0  0  0  0  0  0  0  0  0  0  0  0
  -88.3457   36.4342   -3.4700 C   0  0  0  0  0  0  0  0  0  0  0  0
  -87.7939   37.7011   -3.2126 C   0  0  0  0  0  0  0  0  0  0  0  0
  -88.5119   38.8521   -3.4129 C   0  0  0  0  0  0  0  0  0  0  0  0
  -89.8007   38.6720   -3.8840 C   0  0  0  0  0  0  0  0  0  0  0  0
  -90.3350   37.4688   -4.1307 C   0  0  0  0  0  0  0  0  0  0  0  0
  -89.6165   36.2680   -3.9243 C   0  0  0  0  0  0  0  0  0  0  0  0
 21 22  1  0  0  0
 22 23  2  0  0  0
 23 20  1  0  0  0
 20  1  1  0  0  0
  1  2  1  0  0  0
  1  3  1  0  0  0
  3  4  2  0  0  0
  3  5  1  0  0  0
  5  6  2  0  0  0
  6  7  1  0  0  0
  7  8  2  0  0  0
  8  9  1  0  0  0
  9 10  2  0  0  0
 10 11  1  0  0  0
 11 12  2  0  0  0
 11 13  1  0  0  0
 13 14  1  0  0  0
 14 15  1  0  0  0
 15 16  1  0  0  0
 16 17  1  0  0  0
 23 24  1  0  0  0
 24 25  1  0  0  0
 25 26  2  0  0  0
 26 27  1  0  0  0
 27 28  2  0  0  0
 28 29  1  0  0  0
 29 30  2  0  0  0
 30 22  1  0  0  0
 12  7  1  0  0  0
 30 25  1  0  0  0
 17 10  1  0  0  0
 14 18  1  0  0  0
 17 19  1  0  0  0
M  END
> <minimizedAffinity>
-7.70126

> <CNNscore>
0.1387854069

> <CNNaffinity>
5.4263906479

> <CNN_VS>
0.7531038523

> <CNNaffinity_variance>
0.1216168851

$$$$
[H]/C(C(=O)N(C([H])([H])[H])C([H])([H])c1sc2c([H])c([H])c([H])c([H])c2c1C([H])([H])[H])=C(/[H])c1c([H])nc2c(c1[H])C([H])([H])N([H])C([H])([H])C([H])([H])N2[H]


 30 33  0  0  0  0  0  0  0  0999 V2000
  -85.8756   32.7420   -0.7959 N   0  0  0  0  0  0  0  0  0  0  0  0
  -84.6166   33.3324   -1.1610 C   0  0  0  0  0  0  0  0  0  0  0  0
  -87.0687   33.2974   -1.4546 C   0  0  0  0  0  0  0  0  0  0  0  0
  -88.2053   33.1285   -1.0133 O   0  0  0  0  0  0  0  0  0  0  0  0
  -86.8595   34.0156   -2.7062 C   0  0  0  0  0  0  0  0  0  0  0  0
  -87.9801   34.4087   -3.3328 C   0  0  0  0  0  0  0  0  0  0  0  0
  -87.9405   35.1345   -4.6161 C   0  0  0  0  0  0  0  0  0  0  0  0
  -86.9246   36.0343   -4.8491 C   0  0  0  0  0  0  0  0  0  0  0  0
  -86.9053   36.8631   -5.9464 N   0  0  0  0  0  0  0  0  0  0  0  0
  -87.9265   36.7785   -6.8149 C   0  0  0  0  0  0  0  0  0  0  0  0
  -88.9449   35.8706   -6.5968 C   0  0  0  0  0  0  0  0  0  0  0  0
  -88.9683   35.0433   -5.5028 C   0  0  0  0  0  0  0  0  0  0  0  0
  -90.1097   35.6889   -7.5247 C   0  0  0  0  0  0  0  0  0  0  0  0
  -90.7775   36.9600   -7.4947 N   0  0  0  0  0  0  0  0  0  0  0  0
  -90.3345   37.9397   -8.3996 C   0  0  0  0  0  0  0  0  0  0  0  0
  -88.9328   38.1283   -8.7505 C   0  0  0  0  0  0  0  0  0  0  0  0
  -87.8837   37.7566   -7.8769 N   0  0  0  0  0  0  0  0  0  0  0  0
  -90.8223   37.2571   -6.4910 H   0  0  0  0  0  0  0  0  0  0  0  0
  -86.9717   38.2514   -7.9626 H   0  0  0  0  0  0  0  0  0  0  0  0
  -86.0911   31.7742    0.1487 C   0  0  0  0  0  0  0  0  0  0  0  0
  -85.2323   29.3891    2.0500 C   0  0  0  0  0  0  0  0  0  0  0  0
  -86.1751   29.2706    0.8292 C   0  0  0  0  0  0  0  0  0  0  0  0
  -86.2439   30.3311   -0.0135 C   0  0  0  0  0  0  0  0  0  0  0  0
  -87.2734   29.6404   -1.3054 S   0  0  0  0  0  0  0  0  0  0  0  0
  -87.5312   28.0962   -0.6418 C   0  0  0  0  0  0  0  0  0  0  0  0
  -88.2955   26.9819   -1.0289 C   0  0  0  0  0  0  0  0  0  0  0  0
  -88.3706   25.8559   -0.2497 C   0  0  0  0  0  0  0  0  0  0  0  0
  -87.6439   25.9004    0.9272 C   0  0  0  0  0  0  0  0  0  0  0  0
  -86.9139   26.9583    1.3045 C   0  0  0  0  0  0  0  0  0  0  0  0
  -86.8279   28.1329    0.5213 C   0  0  0  0  0  0  0  0  0  0  0  0
 21 22  1  0  0  0
 22 23  2  0  0  0
 23 20  1  0  0  0
 20  1  1  0  0  0
  1  2  1  0  0  0
  1  3  1  0  0  0
  3  4  2  0  0  0
  3  5  1  0  0  0
  5  6  2  0  0  0
  6  7  1  0  0  0
  7  8  2  0  0  0
  8  9  1  0  0  0
  9 10  2  0  0  0
 10 11  1  0  0  0
 11 12  2  0  0  0
 11 13  1  0  0  0
 13 14  1  0  0  0
 14 15  1  0  0  0
 15 16  1  0  0  0
 16 17  1  0  0  0
 23 24  1  0  0  0
 24 25  1  0  0  0
 25 26  2  0  0  0
 26 27  1  0  0  0
 27 28  2  0  0  0
 28 29  1  0  0  0
 29 30  2  0  0  0
 30 22  1  0  0  0
 12  7  1  0  0  0
 30 25  1  0  0  0
 17 10  1  0  0  0
 14 18  1  0  0  0
 17 19  1  0  0  0
M  END
> <minimizedAffinity>
-7.52319

> <CNNscore>
0.1343698651

> <CNNaffinity>
5.3079195023

> <CNN_VS>
0.7132244110

> <CNNaffinity_variance>
0.2988584936

$$$$
[H]/C(C(=O)N(C([H])([H])[H])C([H])([H])c1sc2c([H])c([H])c([H])c([H])c2c1C([H])([H])[H])=C(/[H])c1c([H])nc2c(c1[H])C([H])([H])N([H])C([H])([H])C([H])([H])N2[H]


 30 33  0  0  0  0  0  0  0  0999 V2000
  -87.6638   32.3145   -1.6871 N   0  0  0  0  0  0  0  0  0  0  0  0
  -88.8997   31.6771   -2.0521 C   0  0  0  0  0  0  0  0  0  0  0  0
  -87.0603   33.1912   -2.7034 C   0  0  0  0  0  0  0  0  0  0  0  0
  -85.8775   33.5301   -2.6648 O   0  0  0  0  0  0  0  0  0  0  0  0
  -87.9441   33.7049   -3.7432 C   0  0  0  0  0  0  0  0  0  0  0  0
  -87.3977   34.6262   -4.5529 C   0  0  0  0  0  0  0  0  0  0  0  0
  -88.1632   35.2538   -5.6461 C   0  0  0  0  0  0  0  0  0  0  0  0
  -87.6374   36.3498   -6.2928 C   0  0  0  0  0  0  0  0  0  0  0  0
  -88.3536   37.0849   -7.2082 N   0  0  0  0  0  0  0  0  0  0  0  0
  -89.6151   36.7047   -7.4695 C   0  0  0  0  0  0  0  0  0  0  0  0
  -90.1484   35.5993   -6.8350 C   0  0  0  0  0  0  0  0  0  0  0  0
  -89.4377   34.8644   -5.9204 C   0  0  0  0  0  0  0  0  0  0  0  0
  -91.5365   35.0872   -7.0834 C   0  0  0  0  0  0  0  0  0  0  0  0
  -92.3844   36.1645   -6.6556 N   0  0  0  0  0  0  0  0  0  0  0  0
  -92.6867   37.1585   -7.6020 C   0  0  0  0  0  0  0  0  0  0  0  0
  -91.7255   37.6478   -8.5819 C   0  0  0  0  0  0  0  0  0  0  0  0
  -90.3298   37.5925   -8.3569 N   0  0  0  0  0  0  0  0  0  0  0  0
  -92.0026   36.5089   -5.7428 H   0  0  0  0  0  0  0  0  0  0  0  0
  -89.7232   38.2812   -8.8483 H   0  0  0  0  0  0  0  0  0  0  0  0
  -86.9529   32.1369   -0.5301 C   0  0  0  0  0  0  0  0  0  0  0  0
  -83.8030   32.2412   -0.2005 C   0  0  0  0  0  0  0  0  0  0  0  0
  -84.7172   31.0817    0.2609 C   0  0  0  0  0  0  0  0  0  0  0  0
  -86.0026   31.0878   -0.1719 C   0  0  0  0  0  0  0  0  0  0  0  0
  -86.5529   29.5029    0.4533 S   0  0  0  0  0  0  0  0  0  0  0  0
  -85.1167   29.0052    1.2153 C   0  0  0  0  0  0  0  0  0  0  0  0
  -84.7595   27.8906    1.9937 C   0  0  0  0  0  0  0  0  0  0  0  0
  -83.5112   27.7717    2.5489 C   0  0  0  0  0  0  0  0  0  0  0  0
  -82.6432   28.8166    2.2843 C   0  0  0  0  0  0  0  0  0  0  0  0
  -82.9755   29.8830    1.5449 C   0  0  0  0  0  0  0  0  0  0  0  0
  -84.2589   30.0310    0.9690 C   0  0  0  0  0  0  0  0  0  0  0  0
 21 22  1  0  0  0
 22 23  2  0  0  0
 23 20  1  0  0  0
 20  1  1  0  0  0
  1  2  1  0  0  0
  1  3  1  0  0  0
  3  4  2  0  0  0
  3  5  1  0  0  0
  5  6  2  0  0  0
  6  7  1  0  0  0
  7  8  2  0  0  0
  8  9  1  0  0  0
  9 10  2  0  0  0
 10 11  1  0  0  0
 11 12  2  0  0  0
 11 13  1  0  0  0
 13 14  1  0  0  0
 14 15  1  0  0  0
 15 16  1  0  0  0
 16 17  1  0  0  0
 23 24  1  0  0  0
 24 25  1  0  0  0
 25 26  2  0  0  0
 26 27  1  0  0  0
 27 28  2  0  0  0
 28 29  1  0  0  0
 29 30  2  0  0  0
 30 22  1  0  0  0
 12  7  1  0  0  0
 30 25  1  0  0  0
 17 10  1  0  0  0
 14 18  1  0  0  0
 17 19  1  0  0  0
M  END
> <minimizedAffinity>
-8.68115

> <CNNscore>
0.1277813166

> <CNNaffinity>
5.5591630936

> <CNN_VS>
0.7103571892

> <CNNaffinity_variance>
0.0953614339

$$$$
[H]/C(C(=O)N(C([H])([H])[H])C([H])([H])c1sc2c([H])c([H])c([H])c([H])c2c1C([H])([H])[H])=C(/[H])c1c([H])nc2c(c1[H])C([H])([H])N([H])C([H])([H])C([H])([H])N2[H]


 30 33  0  0  0  0  0  0  0  0999 V2000
  -89.2325   30.7394   -2.9527 N   0  0  0  0  0  0  0  0  0  0  0  0
  -90.4566   31.4296   -2.6491 C   0  0  0  0  0  0  0  0  0  0  0  0
  -88.5760   31.1073   -4.2174 C   0  0  0  0  0  0  0  0  0  0  0  0
  -87.7303   30.3922   -4.7547 O   0  0  0  0  0  0  0  0  0  0  0  0
  -88.9229   32.4023   -4.7907 C   0  0  0  0  0  0  0  0  0  0  0  0
  -88.0672   33.3983   -4.5103 C   0  0  0  0  0  0  0  0  0  0  0  0
  -88.2822   34.7713   -5.0038 C   0  0  0  0  0  0  0  0  0  0  0  0
  -89.5255   35.1301   -5.4745 C   0  0  0  0  0  0  0  0  0  0  0  0
  -89.7643   36.3337   -6.0957 N   0  0  0  0  0  0  0  0  0  0  0  0
  -88.7320   37.1807   -6.2410 C   0  0  0  0  0  0  0  0  0  0  0  0
  -87.4830   36.8355   -5.7616 C   0  0  0  0  0  0  0  0  0  0  0  0
  -87.2406   35.6355   -5.1428 C   0  0  0  0  0  0  0  0  0  0  0  0
  -86.2804   37.7274   -5.8562 C   0  0  0  0  0  0  0  0  0  0  0  0
  -86.0709   37.8770   -7.2692 N   0  0  0  0  0  0  0  0  0  0  0  0
  -86.7682   38.9118   -7.9158 C   0  0  0  0  0  0  0  0  0  0  0  0
  -88.1353   39.2869   -7.5784 C   0  0  0  0  0  0  0  0  0  0  0  0
  -89.0438   38.3704   -6.9985 N   0  0  0  0  0  0  0  0  0  0  0  0
  -86.1746   36.9254   -7.6951 H   0  0  0  0  0  0  0  0  0  0  0  0
  -90.0627   38.5259   -7.1454 H   0  0  0  0  0  0  0  0  0  0  0  0
  -88.6533   29.7290   -2.2322 C   0  0  0  0  0  0  0  0  0  0  0  0
  -86.9911   32.1723   -1.0882 C   0  0  0  0  0  0  0  0  0  0  0  0
  -86.8605   30.7016   -0.6267 C   0  0  0  0  0  0  0  0  0  0  0  0
  -87.4657   29.7522   -1.3829 C   0  0  0  0  0  0  0  0  0  0  0  0
  -86.8730   28.2735   -0.5658 S   0  0  0  0  0  0  0  0  0  0  0  0
  -85.9434   29.0013    0.6579 C   0  0  0  0  0  0  0  0  0  0  0  0
  -85.2106   28.5086    1.7515 C   0  0  0  0  0  0  0  0  0  0  0  0
  -84.5902   29.3501    2.6390 C   0  0  0  0  0  0  0  0  0  0  0  0
  -84.7368   30.7009    2.3759 C   0  0  0  0  0  0  0  0  0  0  0  0
  -85.4342   31.1792    1.3371 C   0  0  0  0  0  0  0  0  0  0  0  0
  -86.0887   30.3310    0.4137 C   0  0  0  0  0  0  0  0  0  0  0  0
 21 22  1  0  0  0
 22 23  2  0  0  0
 23 20  1  0  0  0
 20  1  1  0  0  0
  1  2  1  0  0  0
  1  3  1  0  0  0
  3  4  2  0  0  0
  3  5  1  0  0  0
  5  6  2  0  0  0
  6  7  1  0  0  0
  7  8  2  0  0  0
  8  9  1  0  0  0
  9 10  2  0  0  0
 10 11  1  0  0  0
 11 12  2  0  0  0
 11 13  1  0  0  0
 13 14  1  0  0  0
 14 15  1  0  0  0
 15 16  1  0  0  0
 16 17  1  0  0  0
 23 24  1  0  0  0
 24 25  1  0  0  0
 25 26  2  0  0  0
 26 27  1  0  0  0
 27 28  2  0  0  0
 28 29  1  0  0  0
 29 30  2  0  0  0
 30 22  1  0  0  0
 12  7  1  0  0  0
 30 25  1  0  0  0
 17 10  1  0  0  0
 14 18  1  0  0  0
 17 19  1  0  0  0
M  END
> <minimizedAffinity>
-8.60421

> <CNNscore>
0.1277315319

> <CNNaffinity>
5.4563207626

> <CNN_VS>
0.6969442368

> <CNNaffinity_variance>
0.2324532270

$$$$
[H]c1c([H])c([H])c(C([H])([H])N(C([H])([H])[H])C([H])([H])C([H])([H])OC(=O)C2=C(C([H])([H])[H])N=C(C([H])([H])[H])C([H])(C(=O)OC([H])([H])[H])C2([H])c2c([H])c([H])c([H])c([N+](=O)[O-])c2[H])c([H])c1[H]


 35 37  0  0  0  0  0  0  0  0999 V2000
  -85.5161   31.1428    0.4631 C   0  0  0  0  0  0  0  0  0  0  0  0
  -85.4272   30.6070    1.8253 C   0  0  0  0  0  0  0  0  0  0  0  0
  -84.7125   31.4779    2.8459 C   0  0  0  0  0  0  0  0  0  0  0  0
  -85.8861   29.5045    2.2185 N   0  0  0  0  0  0  0  0  0  0  0  0
  -86.5678   28.6392    1.3316 C   0  0  0  0  0  0  0  0  0  0  0  0
  -87.0612   27.3306    1.8903 C   0  0  0  0  0  0  0  0  0  0  0  0
  -86.7300   28.9929    0.0740 C   0  0  0  0  0  0  0  0  0  0  0  0
  -86.2541   30.3038   -0.4712 C   0  0  0  0  0  0  0  0  0  0  0  0
  -87.4327   30.9950   -1.0764 C   0  0  0  0  0  0  0  0  0  0  0  0
  -88.4104   31.5947   -0.3317 C   0  0  0  0  0  0  0  0  0  0  0  0
  -89.4757   32.2433   -0.9227 C   0  0  0  0  0  0  0  0  0  0  0  0
  -89.5608   32.2904   -2.3102 C   0  0  0  0  0  0  0  0  0  0  0  0
  -88.5748   31.6856   -3.0727 C   0  0  0  0  0  0  0  0  0  0  0  0
  -87.5232   31.0455   -2.4435 C   0  0  0  0  0  0  0  0  0  0  0  0
  -88.6825   31.7471   -4.4861 N   0  0  0  0  0  0  0  0  0  0  0  0
  -88.1552   30.8467   -5.1578 O   0  0  0  0  0  0  0  0  0  0  0  0
  -89.3393   32.7514   -5.1391 O   0  0  0  0  0  0  0  0  0  0  0  0
  -84.0869   31.3794    0.0265 C   0  0  0  0  0  0  0  0  0  0  0  0
  -83.2488   30.4785    0.0032 O   0  0  0  0  0  0  0  0  0  0  0  0
  -84.6735   33.4913   -1.0332 C   0  0  0  0  0  0  0  0  0  0  0  0
  -83.7386   32.6590   -0.3537 O   0  0  0  0  0  0  0  0  0  0  0  0
  -87.4281   28.1051   -0.8421 C   0  0  0  0  0  0  0  0  0  0  0  0
  -86.7092   27.4764   -1.7082 O   0  0  0  0  0  0  0  0  0  0  0  0
  -88.7740   27.8325   -0.9189 O   0  0  0  0  0  0  0  0  0  0  0  0
  -89.1689   26.4998   -1.2877 C   0  0  0  0  0  0  0  0  0  0  0  0
  -89.1977   25.5690   -0.1429 C   0  0  0  0  0  0  0  0  0  0  0  0
  -90.4271   25.2429    0.4568 N   0  0  0  0  0  0  0  0  0  0  0  0
  -91.3649   24.4508   -0.2023 C   0  0  0  0  0  0  0  0  0  0  0  0
  -90.9872   26.4181    1.0652 C   0  0  0  0  0  0  0  0  0  0  0  0
  -90.6519   26.5868    2.4923 C   0  0  0  0  0  0  0  0  0  0  0  0
  -90.4004   25.5385    3.3584 C   0  0  0  0  0  0  0  0  0  0  0  0
  -90.0901   25.7391    4.6862 C   0  0  0  0  0  0  0  0  0  0  0  0
  -90.0278   27.0317    5.1694 C   0  0  0  0  0  0  0  0  0  0  0  0
  -90.2752   28.0892    4.3218 C   0  0  0  0  0  0  0  0  0  0  0  0
  -90.5806   27.8642    3.0111 C   0  0  0  0  0  0  0  0  0  0  0  0
 20 21  1  0  0  0
 21 18  1  0  0  0
 18 19  2  0  0  0
 18  1  1  0  0  0
  1  2  1  0  0  0
  2  3  1  0  0  0
  2  4  2  0  0  0
  4  5  1  0  0  0
  5  6  1  0  0  0
  5  7  2  0  0  0
  7 22  1  0  0  0
 22 23  2  0  0  0
 22 24  1  0  0  0
 24 25  1  0  0  0
 25 26  1  0  0  0
 26 27  1  0  0  0
 27 28  1  0  0  0
 27 29  1  0  0  0
 29 30  1  0  0  0
 30 31  2  0  0  0
 31 32  1  0  0  0
 32 33  2  0  0  0
 33 34  1  0  0  0
 34 35  2  0  0  0
  7  8  1  0  0  0
  8  9  1  0  0  0
  9 10  2  0  0  0
 10 11  1  0  0  0
 11 12  2  0  0  0
 12 13  1  0  0  0
 13 15  1  0  0  0
 15 16  2  0  0  0
 15 17  1  0  0  0
 13 14  2  0  0  0
  8  1  1  0  0  0
 14  9  1  0  0  0
 35 30  1  0  0  0
M  CHG 1  15   1
M  CHG 1  17  -1
M  END
> <minimizedAffinity>
-8.29227

> <CNNscore>
0.4711166024

> <CNNaffinity>
6.8522439003

> <CNN_VS>
3.2282059193

> <CNNaffinity_variance>
0.0658776835

$$$$
[H]c1c([H])c([H])c(C([H])([H])N(C([H])([H])[H])C([H])([H])C([H])([H])OC(=O)C2=C(C([H])([H])[H])N=C(C([H])([H])[H])C([H])(C(=O)OC([H])([H])[H])C2([H])c2c([H])c([H])c([H])c([N+](=O)[O-])c2[H])c([H])c1[H]


 35 37  0  0  0  0  0  0  0  0999 V2000
  -85.1541   30.5908    0.8176 C   0  0  0  0  0  0  0  0  0  0  0  0
  -84.2364   31.5778    0.2393 C   0  0  0  0  0  0  0  0  0  0  0  0
  -82.7768   31.4600    0.6475 C   0  0  0  0  0  0  0  0  0  0  0  0
  -84.5471   32.5008   -0.5559 N   0  0  0  0  0  0  0  0  0  0  0  0
  -85.8829   32.6742   -0.9871 C   0  0  0  0  0  0  0  0  0  0  0  0
  -86.1605   33.8216   -1.9222 C   0  0  0  0  0  0  0  0  0  0  0  0
  -86.8178   31.8549   -0.5539 C   0  0  0  0  0  0  0  0  0  0  0  0
  -86.5325   30.7042    0.3606 C   0  0  0  0  0  0  0  0  0  0  0  0
  -87.0342   29.4640   -0.3051 C   0  0  0  0  0  0  0  0  0  0  0  0
  -87.2026   29.3585   -1.6581 C   0  0  0  0  0  0  0  0  0  0  0  0
  -87.6485   28.1908   -2.2435 C   0  0  0  0  0  0  0  0  0  0  0  0
  -87.9347   27.0915   -1.4408 C   0  0  0  0  0  0  0  0  0  0  0  0
  -87.7669   27.1893   -0.0690 C   0  0  0  0  0  0  0  0  0  0  0  0
  -87.3183   28.3764    0.4798 C   0  0  0  0  0  0  0  0  0  0  0  0
  -88.0647   26.0549    0.7293 N   0  0  0  0  0  0  0  0  0  0  0  0
  -88.4474   25.0190    0.1633 O   0  0  0  0  0  0  0  0  0  0  0  0
  -87.9496   26.0523    2.0906 O   0  0  0  0  0  0  0  0  0  0  0  0
  -85.0250   30.7470    2.3170 C   0  0  0  0  0  0  0  0  0  0  0  0
  -84.9350   31.8487    2.8580 O   0  0  0  0  0  0  0  0  0  0  0  0
  -84.2158   28.4815    2.6916 C   0  0  0  0  0  0  0  0  0  0  0  0
  -85.0107   29.5977    3.0800 O   0  0  0  0  0  0  0  0  0  0  0  0
  -88.1931   32.0312   -0.9926 C   0  0  0  0  0  0  0  0  0  0  0  0
  -89.1039   32.0161   -0.0803 O   0  0  0  0  0  0  0  0  0  0  0  0
  -88.6726   32.2170   -2.2682 O   0  0  0  0  0  0  0  0  0  0  0  0
  -90.0302   31.8272   -2.5383 C   0  0  0  0  0  0  0  0  0  0  0  0
  -90.1278   30.6681   -3.4464 C   0  0  0  0  0  0  0  0  0  0  0  0
  -91.2280   29.7979   -3.3467 N   0  0  0  0  0  0  0  0  0  0  0  0
  -92.0898   29.5966   -4.4228 C   0  0  0  0  0  0  0  0  0  0  0  0
  -91.9033   30.0245   -2.0988 C   0  0  0  0  0  0  0  0  0  0  0  0
  -91.6677   28.9849   -1.0783 C   0  0  0  0  0  0  0  0  0  0  0  0
  -91.1985   29.2428    0.1967 C   0  0  0  0  0  0  0  0  0  0  0  0
  -90.9917   28.2419    1.1213 C   0  0  0  0  0  0  0  0  0  0  0  0
  -91.2625   26.9356    0.7630 C   0  0  0  0  0  0  0  0  0  0  0  0
  -91.7307   26.6588   -0.5028 C   0  0  0  0  0  0  0  0  0  0  0  0
  -91.9270   27.6677   -1.4002 C   0  0  0  0  0  0  0  0  0  0  0  0
 20 21  1  0  0  0
 21 18  1  0  0  0
 18 19  2  0  0  0
 18  1  1  0  0  0
  1  2  1  0  0  0
  2  3  1  0  0  0
  2  4  2  0  0  0
  4  5  1  0  0  0
  5  6  1  0  0  0
  5  7  2  0  0  0
  7 22  1  0  0  0
 22 23  2  0  0  0
 22 24  1  0  0  0
 24 25  1  0  0  0
 25 26  1  0  0  0
 26 27  1  0  0  0
 27 28  1  0  0  0
 27 29  1  0  0  0
 29 30  1  0  0  0
 30 31  2  0  0  0
 31 32  1  0  0  0
 32 33  2  0  0  0
 33 34  1  0  0  0
 34 35  2  0  0  0
  7  8  1  0  0  0
  8  9  1  0  0  0
  9 10  2  0  0  0
 10 11  1  0  0  0
 11 12  2  0  0  0
 12 13  1  0  0  0
 13 15  1  0  0  0
 15 16  2  0  0  0
 15 17  1  0  0  0
 13 14  2  0  0  0
  8  1  1  0  0  0
 14  9  1  0  0  0
 35 30  1  0  0  0
M  CHG 1  15   1
M  CHG 1  17  -1
M  END
> <minimizedAffinity>
-7.77117

> <CNNscore>
0.4352878928

> <CNNaffinity>
6.5106039047

> <CNN_VS>
2.8339869976

> <CNNaffinity_variance>
0.5989539623

$$$$
[H]c1c([H])c([H])c(C([H])([H])N(C([H])([H])[H])C([H])([H])C([H])([H])OC(=O)C2=C(C([H])([H])[H])N=C(C([H])([H])[H])C([H])(C(=O)OC([H])([H])[H])C2([H])c2c([H])c([H])c([H])c([N+](=O)[O-])c2[H])c([H])c1[H]


 35 37  0  0  0  0  0  0  0  0999 V2000
  -85.7622   30.3122    1.0306 C   0  0  0  0  0  0  0  0  0  0  0  0
  -85.7457   29.2952    2.0871 C   0  0  0  0  0  0  0  0  0  0  0  0
  -85.1328   29.7131    3.4140 C   0  0  0  0  0  0  0  0  0  0  0  0
  -86.1900   28.1228    1.9931 N   0  0  0  0  0  0  0  0  0  0  0  0
  -86.7791   27.6592    0.7939 C   0  0  0  0  0  0  0  0  0  0  0  0
  -87.2616   26.2327    0.7710 C   0  0  0  0  0  0  0  0  0  0  0  0
  -86.8692   28.4673   -0.2414 C   0  0  0  0  0  0  0  0  0  0  0  0
  -86.4051   29.8905   -0.2065 C   0  0  0  0  0  0  0  0  0  0  0  0
  -87.5645   30.7522   -0.5889 C   0  0  0  0  0  0  0  0  0  0  0  0
  -88.8533   30.4750   -0.2251 C   0  0  0  0  0  0  0  0  0  0  0  0
  -89.8994   31.3036   -0.5775 C   0  0  0  0  0  0  0  0  0  0  0  0
  -89.6407   32.4501   -1.3211 C   0  0  0  0  0  0  0  0  0  0  0  0
  -88.3380   32.7389   -1.6941 C   0  0  0  0  0  0  0  0  0  0  0  0
  -87.3171   31.8841   -1.3219 C   0  0  0  0  0  0  0  0  0  0  0  0
  -88.0983   33.9142   -2.4520 N   0  0  0  0  0  0  0  0  0  0  0  0
  -89.0739   34.5797   -2.8331 O   0  0  0  0  0  0  0  0  0  0  0  0
  -86.8441   34.3447   -2.7804 O   0  0  0  0  0  0  0  0  0  0  0  0
  -84.3163   30.7088    0.8271 C   0  0  0  0  0  0  0  0  0  0  0  0
  -83.4176   29.8773    0.7025 O   0  0  0  0  0  0  0  0  0  0  0  0
  -83.3454   32.6134   -0.3379 C   0  0  0  0  0  0  0  0  0  0  0  0
  -84.0236   32.0563    0.7838 O   0  0  0  0  0  0  0  0  0  0  0  0
  -87.4718   27.9939   -1.4773 C   0  0  0  0  0  0  0  0  0  0  0  0
  -86.9328   28.3901   -2.5795 O   0  0  0  0  0  0  0  0  0  0  0  0
  -88.5569   27.1653   -1.6437 O   0  0  0  0  0  0  0  0  0  0  0  0
  -89.6069   27.6030   -2.5236 C   0  0  0  0  0  0  0  0  0  0  0  0
  -90.7201   26.6388   -2.6177 C   0  0  0  0  0  0  0  0  0  0  0  0
  -90.8415   25.6215   -1.6544 N   0  0  0  0  0  0  0  0  0  0  0  0
  -90.9632   24.2844   -2.0270 C   0  0  0  0  0  0  0  0  0  0  0  0
  -91.7809   26.0292   -0.6464 C   0  0  0  0  0  0  0  0  0  0  0  0
  -91.1750   26.3486    0.6607 C   0  0  0  0  0  0  0  0  0  0  0  0
  -90.8320   25.4013    1.6080 C   0  0  0  0  0  0  0  0  0  0  0  0
  -90.2672   25.7416    2.8183 C   0  0  0  0  0  0  0  0  0  0  0  0
  -90.0354   27.0748    3.0955 C   0  0  0  0  0  0  0  0  0  0  0  0
  -90.3704   28.0333    2.1643 C   0  0  0  0  0  0  0  0  0  0  0  0
  -90.9287   27.6706    0.9732 C   0  0  0  0  0  0  0  0  0  0  0  0
 20 21  1  0  0  0
 21 18  1  0  0  0
 18 19  2  0  0  0
 18  1  1  0  0  0
  1  2  1  0  0  0
  2  3  1  0  0  0
  2  4  2  0  0  0
  4  5  1  0  0  0
  5  6  1  0  0  0
  5  7  2  0  0  0
  7 22  1  0  0  0
 22 23  2  0  0  0
 22 24  1  0  0  0
 24 25  1  0  0  0
 25 26  1  0  0  0
 26 27  1  0  0  0
 27 28  1  0  0  0
 27 29  1  0  0  0
 29 30  1  0  0  0
 30 31  2  0  0  0
 31 32  1  0  0  0
 32 33  2  0  0  0
 33 34  1  0  0  0
 34 35  2  0  0  0
  7  8  1  0  0  0
  8  9  1  0  0  0
  9 10  2  0  0  0
 10 11  1  0  0  0
 11 12  2  0  0  0
 12 13  1  0  0  0
 13 15  1  0  0  0
 15 16  2  0  0  0
 15 17  1  0  0  0
 13 14  2  0  0  0
  8  1  1  0  0  0
 14  9  1  0  0  0
 35 30  1  0  0  0
M  CHG 1  15   1
M  CHG 1  17  -1
M  END
> <minimizedAffinity>
-7.55865

> <CNNscore>
0.3814074099

> <CNNaffinity>
6.5384492874

> <CNN_VS>
2.4938130379

> <CNNaffinity_variance>
0.0881147310

$$$$
[H]c1c([H])c([H])c(C([H])([H])N(C([H])([H])[H])C([H])([H])C([H])([H])OC(=O)C2=C(C([H])([H])[H])N=C(C([H])([H])[H])C([H])(C(=O)OC([H])([H])[H])C2([H])c2c([H])c([H])c([H])c([N+](=O)[O-])c2[H])c([H])c1[H]


 35 37  0  0  0  0  0  0  0  0999 V2000
  -85.3003   30.3778    0.8395 C   0  0  0  0  0  0  0  0  0  0  0  0
  -84.3209   31.2948    0.2472 C   0  0  0  0  0  0  0  0  0  0  0  0
  -82.8754   31.1054    0.6777 C   0  0  0  0  0  0  0  0  0  0  0  0
  -84.5691   32.2116   -0.5766 N   0  0  0  0  0  0  0  0  0  0  0  0
  -85.8875   32.4487   -1.0300 C   0  0  0  0  0  0  0  0  0  0  0  0
  -86.0881   33.5839   -1.9991 C   0  0  0  0  0  0  0  0  0  0  0  0
  -86.8729   31.6962   -0.5874 C   0  0  0  0  0  0  0  0  0  0  0  0
  -86.6645   30.5567    0.3614 C   0  0  0  0  0  0  0  0  0  0  0  0
  -87.2285   29.3292   -0.2774 C   0  0  0  0  0  0  0  0  0  0  0  0
  -86.7865   28.8405   -1.4757 C   0  0  0  0  0  0  0  0  0  0  0  0
  -87.3150   27.6915   -2.0284 C   0  0  0  0  0  0  0  0  0  0  0  0
  -88.3224   27.0107   -1.3531 C   0  0  0  0  0  0  0  0  0  0  0  0
  -88.7764   27.4985   -0.1384 C   0  0  0  0  0  0  0  0  0  0  0  0
  -88.2218   28.6528    0.3826 C   0  0  0  0  0  0  0  0  0  0  0  0
  -89.8044   26.7869    0.5323 N   0  0  0  0  0  0  0  0  0  0  0  0
  -90.3401   27.3147    1.5195 O   0  0  0  0  0  0  0  0  0  0  0  0
  -90.2297   25.5491    0.1409 O   0  0  0  0  0  0  0  0  0  0  0  0
  -85.1801   30.5677    2.3358 C   0  0  0  0  0  0  0  0  0  0  0  0
  -85.1185   29.6183    3.1163 O   0  0  0  0  0  0  0  0  0  0  0  0
  -84.8379   32.1171    4.1823 C   0  0  0  0  0  0  0  0  0  0  0  0
  -85.1402   31.8611    2.8143 O   0  0  0  0  0  0  0  0  0  0  0  0
  -88.2305   31.9382   -1.0489 C   0  0  0  0  0  0  0  0  0  0  0  0
  -89.0158   32.5727   -0.2470 O   0  0  0  0  0  0  0  0  0  0  0  0
  -88.8100   31.5812   -2.2440 O   0  0  0  0  0  0  0  0  0  0  0  0
  -89.6912   32.5284   -2.8722 C   0  0  0  0  0  0  0  0  0  0  0  0
  -89.7491   32.3775   -4.3390 C   0  0  0  0  0  0  0  0  0  0  0  0
  -89.4488   33.4768   -5.1630 N   0  0  0  0  0  0  0  0  0  0  0  0
  -88.3049   34.2445   -4.9550 C   0  0  0  0  0  0  0  0  0  0  0  0
  -90.6385   34.2554   -5.3711 C   0  0  0  0  0  0  0  0  0  0  0  0
  -91.2380   34.1096   -6.7117 C   0  0  0  0  0  0  0  0  0  0  0  0
  -90.6590   34.5826   -7.8751 C   0  0  0  0  0  0  0  0  0  0  0  0
  -91.2524   34.4256   -9.1091 C   0  0  0  0  0  0  0  0  0  0  0  0
  -92.4674   33.7733   -9.1875 C   0  0  0  0  0  0  0  0  0  0  0  0
  -93.0600   33.2950   -8.0394 C   0  0  0  0  0  0  0  0  0  0  0  0
  -92.4522   33.4633   -6.8294 C   0  0  0  0  0  0  0  0  0  0  0  0
 20 21  1  0  0  0
 21 18  1  0  0  0
 18 19  2  0  0  0
 18  1  1  0  0  0
  1  2  1  0  0  0
  2  3  1  0  0  0
  2  4  2  0  0  0
  4  5  1  0  0  0
  5  6  1  0  0  0
  5  7  2  0  0  0
  7 22  1  0  0  0
 22 23  2  0  0  0
 22 24  1  0  0  0
 24 25  1  0  0  0
 25 26  1  0  0  0
 26 27  1  0  0  0
 27 28  1  0  0  0
 27 29  1  0  0  0
 29 30  1  0  0  0
 30 31  2  0  0  0
 31 32  1  0  0  0
 32 33  2  0  0  0
 33 34  1  0  0  0
 34 35  2  0  0  0
  7  8  1  0  0  0
  8  9  1  0  0  0
  9 10  2  0  0  0
 10 11  1  0  0  0
 11 12  2  0  0  0
 12 13  1  0  0  0
 13 15  1  0  0  0
 15 16  2  0  0  0
 15 17  1  0  0  0
 13 14  2  0  0  0
  8  1  1  0  0  0
 14  9  1  0  0  0
 35 30  1  0  0  0
M  CHG 1  15   1
M  CHG 1  17  -1
M  END
> <minimizedAffinity>
-7.17940

> <CNNscore>
0.3491123617

> <CNNaffinity>
6.5197935104

> <CNN_VS>
2.2761404514

> <CNNaffinity_variance>
0.0620640144

$$$$
[H]c1c([H])c([H])c(C([H])([H])N(C([H])([H])[H])C([H])([H])C([H])([H])OC(=O)C2=C(C([H])([H])[H])N=C(C([H])([H])[H])C([H])(C(=O)OC([H])([H])[H])C2([H])c2c([H])c([H])c([H])c([N+](=O)[O-])c2[H])c([H])c1[H]


 35 37  0  0  0  0  0  0  0  0999 V2000
  -85.2257   30.4418    0.9324 C   0  0  0  0  0  0  0  0  0  0  0  0
  -84.2386   31.3472    0.3351 C   0  0  0  0  0  0  0  0  0  0  0  0
  -82.7969   31.1583    0.7786 C   0  0  0  0  0  0  0  0  0  0  0  0
  -84.4773   32.2539   -0.5025 N   0  0  0  0  0  0  0  0  0  0  0  0
  -85.7915   32.4899   -0.9686 C   0  0  0  0  0  0  0  0  0  0  0  0
  -85.9808   33.6128   -1.9541 C   0  0  0  0  0  0  0  0  0  0  0  0
  -86.7829   31.7469   -0.5233 C   0  0  0  0  0  0  0  0  0  0  0  0
  -86.5857   30.6194    0.4420 C   0  0  0  0  0  0  0  0  0  0  0  0
  -87.1497   29.3856   -0.1845 C   0  0  0  0  0  0  0  0  0  0  0  0
  -86.7013   28.8798   -1.3734 C   0  0  0  0  0  0  0  0  0  0  0  0
  -87.2301   27.7256   -1.9147 C   0  0  0  0  0  0  0  0  0  0  0  0
  -88.2444   27.0570   -1.2374 C   0  0  0  0  0  0  0  0  0  0  0  0
  -88.7048   27.5622   -0.0323 C   0  0  0  0  0  0  0  0  0  0  0  0
  -88.1497   28.7213    0.4774 C   0  0  0  0  0  0  0  0  0  0  0  0
  -89.7397   26.8629    0.6407 N   0  0  0  0  0  0  0  0  0  0  0  0
  -89.4931   25.7325    1.0895 O   0  0  0  0  0  0  0  0  0  0  0  0
  -90.9932   27.3772    0.8160 O   0  0  0  0  0  0  0  0  0  0  0  0
  -85.1156   30.6512    2.4268 C   0  0  0  0  0  0  0  0  0  0  0  0
  -85.1205   31.7715    2.9361 O   0  0  0  0  0  0  0  0  0  0  0  0
  -84.3546   28.3596    2.7387 C   0  0  0  0  0  0  0  0  0  0  0  0
  -85.0073   29.5294    3.2226 O   0  0  0  0  0  0  0  0  0  0  0  0
  -88.1362   31.9878   -0.9978 C   0  0  0  0  0  0  0  0  0  0  0  0
  -88.9313   32.6173   -0.2016 O   0  0  0  0  0  0  0  0  0  0  0  0
  -88.7025   31.6343   -2.2004 O   0  0  0  0  0  0  0  0  0  0  0  0
  -89.7625   32.4607   -2.7117 C   0  0  0  0  0  0  0  0  0  0  0  0
  -89.2820   33.5164   -3.6241 C   0  0  0  0  0  0  0  0  0  0  0  0
  -89.7689   34.8285   -3.4862 N   0  0  0  0  0  0  0  0  0  0  0  0
  -90.8183   35.2963   -4.2743 C   0  0  0  0  0  0  0  0  0  0  0  0
  -88.6620   35.7404   -3.3954 C   0  0  0  0  0  0  0  0  0  0  0  0
  -88.3347   36.4324   -4.6570 C   0  0  0  0  0  0  0  0  0  0  0  0
  -87.6178   35.8596   -5.6915 C   0  0  0  0  0  0  0  0  0  0  0  0
  -87.3330   36.5410   -6.8553 C   0  0  0  0  0  0  0  0  0  0  0  0
  -87.7788   37.8410   -6.9939 C   0  0  0  0  0  0  0  0  0  0  0  0
  -88.4947   38.4288   -5.9741 C   0  0  0  0  0  0  0  0  0  0  0  0
  -88.7635   37.7330   -4.8316 C   0  0  0  0  0  0  0  0  0  0  0  0
 20 21  1  0  0  0
 21 18  1  0  0  0
 18 19  2  0  0  0
 18  1  1  0  0  0
  1  2  1  0  0  0
  2  3  1  0  0  0
  2  4  2  0  0  0
  4  5  1  0  0  0
  5  6  1  0  0  0
  5  7  2  0  0  0
  7 22  1  0  0  0
 22 23  2  0  0  0
 22 24  1  0  0  0
 24 25  1  0  0  0
 25 26  1  0  0  0
 26 27  1  0  0  0
 27 28  1  0  0  0
 27 29  1  0  0  0
 29 30  1  0  0  0
 30 31  2  0  0  0
 31 32  1  0  0  0
 32 33  2  0  0  0
 33 34  1  0  0  0
 34 35  2  0  0  0
  7  8  1  0  0  0
  8  9  1  0  0  0
  9 10  2  0  0  0
 10 11  1  0  0  0
 11 12  2  0  0  0
 12 13  1  0  0  0
 13 15  1  0  0  0
 15 16  2  0  0  0
 15 17  1  0  0  0
 13 14  2  0  0  0
  8  1  1  0  0  0
 14  9  1  0  0  0
 35 30  1  0  0  0
M  CHG 1  15   1
M  CHG 1  17  -1
M  END
> <minimizedAffinity>
-7.54896

> <CNNscore>
0.3483098149

> <CNNaffinity>
6.4210333824

> <CNN_VS>
2.2365088463

> <CNNaffinity_variance>
0.3323921561

$$$$
[H]c1c([H])c([H])c(C([H])([H])N(C([H])([H])[H])C([H])([H])C([H])([H])OC(=O)C2=C(C([H])([H])[H])N=C(C([H])([H])[H])C([H])(C(=O)OC([H])([H])[H])C2([H])c2c([H])c([H])c([H])c([N+](=O)[O-])c2[H])c([H])c1[H]


 35 37  0  0  0  0  0  0  0  0999 V2000
  -85.2314   30.4378    0.9280 C   0  0  0  0  0  0  0  0  0  0  0  0
  -84.2519   31.3542    0.3349 C   0  0  0  0  0  0  0  0  0  0  0  0
  -82.8051   31.1590    0.7584 C   0  0  0  0  0  0  0  0  0  0  0  0
  -84.5010   32.2749   -0.4842 N   0  0  0  0  0  0  0  0  0  0  0  0
  -85.8207   32.5176   -0.9309 C   0  0  0  0  0  0  0  0  0  0  0  0
  -86.0222   33.6571   -1.8948 C   0  0  0  0  0  0  0  0  0  0  0  0
  -86.8063   31.7662   -0.4869 C   0  0  0  0  0  0  0  0  0  0  0  0
  -86.5971   30.6225    0.4566 C   0  0  0  0  0  0  0  0  0  0  0  0
  -87.1674   29.3991   -0.1844 C   0  0  0  0  0  0  0  0  0  0  0  0
  -86.7164   28.9005   -1.3753 C   0  0  0  0  0  0  0  0  0  0  0  0
  -87.2514   27.7556   -1.9302 C   0  0  0  0  0  0  0  0  0  0  0  0
  -88.2750   27.0892   -1.2648 C   0  0  0  0  0  0  0  0  0  0  0  0
  -88.7383   27.5871   -0.0578 C   0  0  0  0  0  0  0  0  0  0  0  0
  -88.1767   28.7370    0.4657 C   0  0  0  0  0  0  0  0  0  0  0  0
  -89.7827   26.8903    0.6029 N   0  0  0  0  0  0  0  0  0  0  0  0
  -90.8525   27.4852    0.8064 O   0  0  0  0  0  0  0  0  0  0  0  0
  -89.6633   25.5962    1.0243 O   0  0  0  0  0  0  0  0  0  0  0  0
  -85.1041   30.6216    2.4244 C   0  0  0  0  0  0  0  0  0  0  0  0
  -85.0855   31.7337    2.9512 O   0  0  0  0  0  0  0  0  0  0  0  0
  -84.3164   28.3370    2.7204 C   0  0  0  0  0  0  0  0  0  0  0  0
  -85.0073   29.4857    3.2015 O   0  0  0  0  0  0  0  0  0  0  0  0
  -88.1652   32.0140   -0.9415 C   0  0  0  0  0  0  0  0  0  0  0  0
  -88.9611   32.5989   -0.1128 O   0  0  0  0  0  0  0  0  0  0  0  0
  -88.7361   31.7087   -2.1550 O   0  0  0  0  0  0  0  0  0  0  0  0
  -90.0303   31.0816   -2.1491 C   0  0  0  0  0  0  0  0  0  0  0  0
  -90.6514   31.0279   -3.4867 C   0  0  0  0  0  0  0  0  0  0  0  0
  -91.4533   32.0972   -3.9239 N   0  0  0  0  0  0  0  0  0  0  0  0
  -92.8340   31.9599   -4.0512 C   0  0  0  0  0  0  0  0  0  0  0  0
  -90.8282   32.7317   -5.0515 C   0  0  0  0  0  0  0  0  0  0  0  0
  -89.9427   33.8601   -4.7049 C   0  0  0  0  0  0  0  0  0  0  0  0
  -90.3578   34.9905   -4.0251 C   0  0  0  0  0  0  0  0  0  0  0  0
  -89.4978   36.0235   -3.7203 C   0  0  0  0  0  0  0  0  0  0  0  0
  -88.1752   35.9271   -4.1068 C   0  0  0  0  0  0  0  0  0  0  0  0
  -87.7426   34.8086   -4.7850 C   0  0  0  0  0  0  0  0  0  0  0  0
  -88.6140   33.7994   -5.0750 C   0  0  0  0  0  0  0  0  0  0  0  0
 20 21  1  0  0  0
 21 18  1  0  0  0
 18 19  2  0  0  0
 18  1  1  0  0  0
  1  2  1  0  0  0
  2  3  1  0  0  0
  2  4  2  0  0  0
  4  5  1  0  0  0
  5  6  1  0  0  0
  5  7  2  0  0  0
  7 22  1  0  0  0
 22 23  2  0  0  0
 22 24  1  0  0  0
 24 25  1  0  0  0
 25 26  1  0  0  0
 26 27  1  0  0  0
 27 28  1  0  0  0
 27 29  1  0  0  0
 29 30  1  0  0  0
 30 31  2  0  0  0
 31 32  1  0  0  0
 32 33  2  0  0  0
 33 34  1  0  0  0
 34 35  2  0  0  0
  7  8  1  0  0  0
  8  9  1  0  0  0
  9 10  2  0  0  0
 10 11  1  0  0  0
 11 12  2  0  0  0
 12 13  1  0  0  0
 13 15  1  0  0  0
 15 16  2  0  0  0
 15 17  1  0  0  0
 13 14  2  0  0  0
  8  1  1  0  0  0
 14  9  1  0  0  0
 35 30  1  0  0  0
M  CHG 1  15   1
M  CHG 1  17  -1
M  END
> <minimizedAffinity>
-7.57403

> <CNNscore>
0.3249821365

> <CNNaffinity>
6.5271797180

> <CNN_VS>
2.1212167740

> <CNNaffinity_variance>
0.2235771865

$$$$
[H]c1c([H])c([H])c(C([H])([H])N(C([H])([H])[H])C([H])([H])C([H])([H])OC(=O)C2=C(C([H])([H])[H])N=C(C([H])([H])[H])C([H])(C(=O)OC([H])([H])[H])C2([H])c2c([H])c([H])c([H])c([N+](=O)[O-])c2[H])c([H])c1[H]


 35 37  0  0  0  0  0  0  0  0999 V2000
  -91.5905   26.7887   -1.2683 C   0  0  0  0  0  0  0  0  0  0  0  0
  -91.3899   27.5246   -2.5210 C   0  0  0  0  0  0  0  0  0  0  0  0
  -92.6149   27.6958   -3.4046 C   0  0  0  0  0  0  0  0  0  0  0  0
  -90.3070   28.0215   -2.9223 N   0  0  0  0  0  0  0  0  0  0  0  0
  -89.1237   27.9092   -2.1560 C   0  0  0  0  0  0  0  0  0  0  0  0
  -87.8714   28.5171   -2.7307 C   0  0  0  0  0  0  0  0  0  0  0  0
  -89.1542   27.2784   -1.0009 C   0  0  0  0  0  0  0  0  0  0  0  0
  -90.4064   26.6926   -0.4256 C   0  0  0  0  0  0  0  0  0  0  0  0
  -90.6012   27.2886    0.9308 C   0  0  0  0  0  0  0  0  0  0  0  0
  -90.8520   28.6176    1.1337 C   0  0  0  0  0  0  0  0  0  0  0  0
  -91.0479   29.1326    2.3991 C   0  0  0  0  0  0  0  0  0  0  0  0
  -90.9897   28.2821    3.4982 C   0  0  0  0  0  0  0  0  0  0  0  0
  -90.7361   26.9342    3.3021 C   0  0  0  0  0  0  0  0  0  0  0  0
  -90.5451   26.4564    2.0188 C   0  0  0  0  0  0  0  0  0  0  0  0
  -90.6818   26.0860    4.4381 N   0  0  0  0  0  0  0  0  0  0  0  0
  -91.0965   24.9218    4.3256 O   0  0  0  0  0  0  0  0  0  0  0  0
  -90.1946   26.4930    5.6478 O   0  0  0  0  0  0  0  0  0  0  0  0
  -92.1244   25.4329   -1.6758 C   0  0  0  0  0  0  0  0  0  0  0  0
  -93.2557   25.0539   -1.3741 O   0  0  0  0  0  0  0  0  0  0  0  0
  -91.6134   23.2386   -2.5985 C   0  0  0  0  0  0  0  0  0  0  0  0
  -91.2927   24.6135   -2.4108 O   0  0  0  0  0  0  0  0  0  0  0  0
  -87.9392   27.1583   -0.2108 C   0  0  0  0  0  0  0  0  0  0  0  0
  -87.4513   25.9737   -0.0657 O   0  0  0  0  0  0  0  0  0  0  0  0
  -87.2190   28.1479    0.4167 O   0  0  0  0  0  0  0  0  0  0  0  0
  -86.9165   27.9758    1.8120 C   0  0  0  0  0  0  0  0  0  0  0  0
  -85.6019   27.3467    2.0440 C   0  0  0  0  0  0  0  0  0  0  0  0
  -84.4490   28.1494    2.1078 N   0  0  0  0  0  0  0  0  0  0  0  0
  -83.2932   27.7044    2.7460 C   0  0  0  0  0  0  0  0  0  0  0  0
  -84.8222   29.4926    2.4565 C   0  0  0  0  0  0  0  0  0  0  0  0
  -84.3369   30.5247    1.5200 C   0  0  0  0  0  0  0  0  0  0  0  0
  -83.0063   30.7092    1.1918 C   0  0  0  0  0  0  0  0  0  0  0  0
  -82.5941   31.6861    0.3113 C   0  0  0  0  0  0  0  0  0  0  0  0
  -83.5422   32.5099   -0.2637 C   0  0  0  0  0  0  0  0  0  0  0  0
  -84.8728   32.3415    0.0510 C   0  0  0  0  0  0  0  0  0  0  0  0
  -85.2555   31.3668    0.9259 C   0  0  0  0  0  0  0  0  0  0  0  0
 20 21  1  0  0  0
 21 18  1  0  0  0
 18 19  2  0  0  0
 18  1  1  0  0  0
  1  2  1  0  0  0
  2  3  1  0  0  0
  2  4  2  0  0  0
  4  5  1  0  0  0
  5  6  1  0  0  0
  5  7  2  0  0  0
  7 22  1  0  0  0
 22 23  2  0  0  0
 22 24  1  0  0  0
 24 25  1  0  0  0
 25 26  1  0  0  0
 26 27  1  0  0  0
 27 28  1  0  0  0
 27 29  1  0  0  0
 29 30  1  0  0  0
 30 31  2  0  0  0
 31 32  1  0  0  0
 32 33  2  0  0  0
 33 34  1  0  0  0
 34 35  2  0  0  0
  7  8  1  0  0  0
  8  9  1  0  0  0
  9 10  2  0  0  0
 10 11  1  0  0  0
 11 12  2  0  0  0
 12 13  1  0  0  0
 13 15  1  0  0  0
 15 16  2  0  0  0
 15 17  1  0  0  0
 13 14  2  0  0  0
  8  1  1  0  0  0
 14  9  1  0  0  0
 35 30  1  0  0  0
M  CHG 1  15   1
M  CHG 1  17  -1
M  END
> <minimizedAffinity>
-8.78740

> <CNNscore>
0.3169216514

> <CNNaffinity>
6.2913074493

> <CNN_VS>
1.9938515425

> <CNNaffinity_variance>
0.7531450987

$$$$
[H]c1c([H])c([H])c(C([H])([H])N(C([H])([H])[H])C([H])([H])C([H])([H])OC(=O)C2=C(C([H])([H])[H])N=C(C([H])([H])[H])C([H])(C(=O)OC([H])([H])[H])C2([H])c2c([H])c([H])c([H])c([N+](=O)[O-])c2[H])c([H])c1[H]


 35 37  0  0  0  0  0  0  0  0999 V2000
  -88.8335   27.6821    2.2136 C   0  0  0  0  0  0  0  0  0  0  0  0
  -90.1828   28.2520    2.1397 C   0  0  0  0  0  0  0  0  0  0  0  0
  -91.0132   28.1831    3.4111 C   0  0  0  0  0  0  0  0  0  0  0  0
  -90.7059   28.7875    1.1296 N   0  0  0  0  0  0  0  0  0  0  0  0
  -89.9972   28.8944   -0.0896 C   0  0  0  0  0  0  0  0  0  0  0  0
  -90.7160   29.5311   -1.2498 C   0  0  0  0  0  0  0  0  0  0  0  0
  -88.7678   28.4304   -0.1702 C   0  0  0  0  0  0  0  0  0  0  0  0
  -88.0515   27.8157    0.9921 C   0  0  0  0  0  0  0  0  0  0  0  0
  -86.7789   28.5737    1.1896 C   0  0  0  0  0  0  0  0  0  0  0  0
  -86.6453   29.9006    0.8869 C   0  0  0  0  0  0  0  0  0  0  0  0
  -85.4612   30.5765    1.1011 C   0  0  0  0  0  0  0  0  0  0  0  0
  -84.3743   29.8949    1.6382 C   0  0  0  0  0  0  0  0  0  0  0  0
  -84.5005   28.5504    1.9479 C   0  0  0  0  0  0  0  0  0  0  0  0
  -85.7033   27.9083    1.7186 C   0  0  0  0  0  0  0  0  0  0  0  0
  -83.3785   27.8762    2.4950 N   0  0  0  0  0  0  0  0  0  0  0  0
  -83.5724   26.8293    3.1327 O   0  0  0  0  0  0  0  0  0  0  0  0
  -82.0969   28.3272    2.3518 O   0  0  0  0  0  0  0  0  0  0  0  0
  -89.0252   26.2388    2.6251 C   0  0  0  0  0  0  0  0  0  0  0  0
  -88.6562   25.8123    3.7189 O   0  0  0  0  0  0  0  0  0  0  0  0
  -90.7328   24.5766    2.1264 C   0  0  0  0  0  0  0  0  0  0  0  0
  -89.6379   25.3935    1.7233 O   0  0  0  0  0  0  0  0  0  0  0  0
  -88.0363   28.5358   -1.4227 C   0  0  0  0  0  0  0  0  0  0  0  0
  -87.5146   27.4524   -1.8876 O   0  0  0  0  0  0  0  0  0  0  0  0
  -87.8170   29.6488   -2.2004 O   0  0  0  0  0  0  0  0  0  0  0  0
  -87.9002   29.4969   -3.6281 C   0  0  0  0  0  0  0  0  0  0  0  0
  -88.2030   30.7614   -4.3260 C   0  0  0  0  0  0  0  0  0  0  0  0
  -89.3187   31.5221   -3.9330 N   0  0  0  0  0  0  0  0  0  0  0  0
  -90.5553   31.3657   -4.5555 C   0  0  0  0  0  0  0  0  0  0  0  0
  -88.9248   32.8937   -3.7644 C   0  0  0  0  0  0  0  0  0  0  0  0
  -87.9244   33.1165   -2.7027 C   0  0  0  0  0  0  0  0  0  0  0  0
  -86.6143   33.4911   -2.9387 C   0  0  0  0  0  0  0  0  0  0  0  0
  -85.7102   33.6895   -1.9175 C   0  0  0  0  0  0  0  0  0  0  0  0
  -86.1262   33.5081   -0.6128 C   0  0  0  0  0  0  0  0  0  0  0  0
  -87.4276   33.1350   -0.3577 C   0  0  0  0  0  0  0  0  0  0  0  0
  -88.3036   32.9446   -1.3864 C   0  0  0  0  0  0  0  0  0  0  0  0
 20 21  1  0  0  0
 21 18  1  0  0  0
 18 19  2  0  0  0
 18  1  1  0  0  0
  1  2  1  0  0  0
  2  3  1  0  0  0
  2  4  2  0  0  0
  4  5  1  0  0  0
  5  6  1  0  0  0
  5  7  2  0  0  0
  7 22  1  0  0  0
 22 23  2  0  0  0
 22 24  1  0  0  0
 24 25  1  0  0  0
 25 26  1  0  0  0
 26 27  1  0  0  0
 27 28  1  0  0  0
 27 29  1  0  0  0
 29 30  1  0  0  0
 30 31  2  0  0  0
 31 32  1  0  0  0
 32 33  2  0  0  0
 33 34  1  0  0  0
 34 35  2  0  0  0
  7  8  1  0  0  0
  8  9  1  0  0  0
  9 10  2  0  0  0
 10 11  1  0  0  0
 11 12  2  0  0  0
 12 13  1  0  0  0
 13 15  1  0  0  0
 15 16  2  0  0  0
 15 17  1  0  0  0
 13 14  2  0  0  0
  8  1  1  0  0  0
 14  9  1  0  0  0
 35 30  1  0  0  0
M  CHG 1  15   1
M  CHG 1  17  -1
M  END
> <minimizedAffinity>
-7.82746

> <CNNscore>
0.2711073756

> <CNNaffinity>
6.7682404518

> <CNN_VS>
1.8349199295

> <CNNaffinity_variance>
0.0887288526

$$$$
[H]c1c([H])c([H])c(C([H])([H])N(C([H])([H])[H])C([H])([H])C([H])([H])OC(=O)C2=C(C([H])([H])[H])N=C(C([H])([H])[H])C([H])(C(=O)OC([H])([H])[H])C2([H])c2c([H])c([H])c([H])c([N+](=O)[O-])c2[H])c([H])c1[H]


 35 37  0  0  0  0  0  0  0  0999 V2000
  -85.0827   29.6388    1.3710 C   0  0  0  0  0  0  0  0  0  0  0  0
  -83.8317   30.3079    0.9995 C   0  0  0  0  0  0  0  0  0  0  0  0
  -82.5584   29.7375    1.6029 C   0  0  0  0  0  0  0  0  0  0  0  0
  -83.7214   31.2989    0.2338 N   0  0  0  0  0  0  0  0  0  0  0  0
  -84.8578   31.8846   -0.3708 C   0  0  0  0  0  0  0  0  0  0  0  0
  -84.6269   33.0821   -1.2544 C   0  0  0  0  0  0  0  0  0  0  0  0
  -86.0519   31.3836   -0.1334 C   0  0  0  0  0  0  0  0  0  0  0  0
  -86.2733   30.1810    0.7307 C   0  0  0  0  0  0  0  0  0  0  0  0
  -87.0136   29.1705   -0.0840 C   0  0  0  0  0  0  0  0  0  0  0  0
  -86.5413   28.6742   -1.2676 C   0  0  0  0  0  0  0  0  0  0  0  0
  -87.2407   27.7255   -1.9856 C   0  0  0  0  0  0  0  0  0  0  0  0
  -88.4567   27.2598   -1.4968 C   0  0  0  0  0  0  0  0  0  0  0  0
  -88.9430   27.7569   -0.2985 C   0  0  0  0  0  0  0  0  0  0  0  0
  -88.2130   28.7068    0.3916 C   0  0  0  0  0  0  0  0  0  0  0  0
  -90.1852   27.2666    0.1805 N   0  0  0  0  0  0  0  0  0  0  0  0
  -90.1780   26.2957    0.9533 O   0  0  0  0  0  0  0  0  0  0  0  0
  -91.3865   27.8144   -0.1706 O   0  0  0  0  0  0  0  0  0  0  0  0
  -85.1501   29.7146    2.8807 C   0  0  0  0  0  0  0  0  0  0  0  0
  -84.7234   28.8149    3.6039 O   0  0  0  0  0  0  0  0  0  0  0  0
  -84.8923   31.9141    3.8921 C   0  0  0  0  0  0  0  0  0  0  0  0
  -85.7143   30.8429    3.4390 O   0  0  0  0  0  0  0  0  0  0  0  0
  -87.2235   31.9843   -0.7509 C   0  0  0  0  0  0  0  0  0  0  0  0
  -87.7778   32.9640   -0.1222 O   0  0  0  0  0  0  0  0  0  0  0  0
  -87.8382   31.6517   -1.9354 O   0  0  0  0  0  0  0  0  0  0  0  0
  -89.2700   31.5166   -1.9337 C   0  0  0  0  0  0  0  0  0  0  0  0
  -89.7437   30.3862   -2.7556 C   0  0  0  0  0  0  0  0  0  0  0  0
  -90.4863   30.6389   -3.9228 N   0  0  0  0  0  0  0  0  0  0  0  0
  -90.3519   31.8382   -4.6192 C   0  0  0  0  0  0  0  0  0  0  0  0
  -91.8511   30.2400   -3.7150 C   0  0  0  0  0  0  0  0  0  0  0  0
  -92.2294   28.9816   -4.3866 C   0  0  0  0  0  0  0  0  0  0  0  0
  -92.1435   27.7331   -3.7983 C   0  0  0  0  0  0  0  0  0  0  0  0
  -92.5075   26.5806   -4.4608 C   0  0  0  0  0  0  0  0  0  0  0  0
  -92.9744   26.6751   -5.7574 C   0  0  0  0  0  0  0  0  0  0  0  0
  -93.0671   27.9102   -6.3606 C   0  0  0  0  0  0  0  0  0  0  0  0
  -92.7002   29.0365   -5.6832 C   0  0  0  0  0  0  0  0  0  0  0  0
 20 21  1  0  0  0
 21 18  1  0  0  0
 18 19  2  0  0  0
 18  1  1  0  0  0
  1  2  1  0  0  0
  2  3  1  0  0  0
  2  4  2  0  0  0
  4  5  1  0  0  0
  5  6  1  0  0  0
  5  7  2  0  0  0
  7 22  1  0  0  0
 22 23  2  0  0  0
 22 24  1  0  0  0
 24 25  1  0  0  0
 25 26  1  0  0  0
 26 27  1  0  0  0
 27 28  1  0  0  0
 27 29  1  0  0  0
 29 30  1  0  0  0
 30 31  2  0  0  0
 31 32  1  0  0  0
 32 33  2  0  0  0
 33 34  1  0  0  0
 34 35  2  0  0  0
  7  8  1  0  0  0
  8  9  1  0  0  0
  9 10  2  0  0  0
 10 11  1  0  0  0
 11 12  2  0  0  0
 12 13  1  0  0  0
 13 15  1  0  0  0
 15 16  2  0  0  0
 15 17  1  0  0  0
 13 14  2  0  0  0
  8  1  1  0  0  0
 14  9  1  0  0  0
 35 30  1  0  0  0
M  CHG 1  15   1
M  CHG 1  17  -1
M  END
> <minimizedAffinity>
-7.11081

> <CNNscore>
0.2182167917

> <CNNaffinity>
6.4580535889

> <CNN_VS>
1.4092557430

> <CNNaffinity_variance>
0.0568609461

$$$$
[H]/C(=C(\[H])C([H])([H])C([H])([H])C([H])([H])C([H])([H])C([H])([H])C([H])([H])C([H])([H])C([H])([H])[H])C([H])([H])C([H])([H])C([H])([H])C([H])([H])C([H])([H])C([H])([H])C([H])([H])C(=O)c1nc2c([H])c([H])c([H])nc2o1


 28 29  0  0  0  0  0  0  0  0999 V2000
  -83.5976   28.1644    2.2628 C   0  0  0  0  0  0  0  0  0  0  0  0
  -82.7405   29.3161    2.0411 C   0  0  0  0  0  0  0  0  0  0  0  0
  -82.9330   30.3083    0.9858 C   0  0  0  0  0  0  0  0  0  0  0  0
  -83.6154   31.5936    1.3292 C   0  0  0  0  0  0  0  0  0  0  0  0
  -83.7006   32.4768    0.1074 C   0  0  0  0  0  0  0  0  0  0  0  0
  -82.6449   32.9540   -0.3571 O   0  0  0  0  0  0  0  0  0  0  0  0
  -84.9652   32.7644   -0.5094 C   0  0  0  0  0  0  0  0  0  0  0  0
  -86.1674   32.2749   -0.1159 N   0  0  0  0  0  0  0  0  0  0  0  0
  -87.1367   32.7517   -0.9190 C   0  0  0  0  0  0  0  0  0  0  0  0
  -88.4944   32.6207   -1.0169 C   0  0  0  0  0  0  0  0  0  0  0  0
  -89.1755   33.2853   -2.0047 C   0  0  0  0  0  0  0  0  0  0  0  0
  -88.4683   34.0799   -2.8873 C   0  0  0  0  0  0  0  0  0  0  0  0
  -87.1178   34.2187   -2.8006 N   0  0  0  0  0  0  0  0  0  0  0  0
  -86.4620   33.5635   -1.8299 C   0  0  0  0  0  0  0  0  0  0  0  0
  -85.1758   33.5390   -1.5460 O   0  0  0  0  0  0  0  0  0  0  0  0
  -85.0648   28.2683    2.3468 C   0  0  0  0  0  0  0  0  0  0  0  0
  -85.8148   27.0764    1.8606 C   0  0  0  0  0  0  0  0  0  0  0  0
  -86.9735   27.3950    0.9275 C   0  0  0  0  0  0  0  0  0  0  0  0
  -87.3571   28.9998   -0.8634 C   0  0  0  0  0  0  0  0  0  0  0  0
  -86.6555   28.6138    0.1736 C   0  0  0  0  0  0  0  0  0  0  0  0
  -88.5054   28.2927   -1.3843 C   0  0  0  0  0  0  0  0  0  0  0  0
  -89.8044   29.0860   -1.2580 C   0  0  0  0  0  0  0  0  0  0  0  0
  -90.0203   29.5829    0.1234 C   0  0  0  0  0  0  0  0  0  0  0  0
  -91.1831   28.9224    0.8637 C   0  0  0  0  0  0  0  0  0  0  0  0
  -90.7244   27.8837    1.8144 C   0  0  0  0  0  0  0  0  0  0  0  0
  -90.8338   28.1198    3.2667 C   0  0  0  0  0  0  0  0  0  0  0  0
  -90.1011   26.8354    5.2624 C   0  0  0  0  0  0  0  0  0  0  0  0
  -89.7109   27.7596    4.1593 C   0  0  0  0  0  0  0  0  0  0  0  0
 27 28  1  0  0  0
 28 26  1  0  0  0
 26 25  1  0  0  0
 25 24  1  0  0  0
 24 23  1  0  0  0
 23 22  1  0  0  0
 22 21  1  0  0  0
 21 19  1  0  0  0
 19 20  2  0  0  0
 20 18  1  0  0  0
 18 17  1  0  0  0
 17 16  1  0  0  0
 16  1  1  0  0  0
  1  2  1  0  0  0
  2  3  1  0  0  0
  3  4  1  0  0  0
  4  5  1  0  0  0
  5  6  2  0  0  0
  5  7  1  0  0  0
  7  8  2  0  0  0
  8  9  1  0  0  0
  9 10  2  0  0  0
 10 11  1  0  0  0
 11 12  2  0  0  0
 12 13  1  0  0  0
 13 14  2  0  0  0
 14 15  1  0  0  0
 15  7  1  0  0  0
 14  9  1  0  0  0
M  END
> <minimizedAffinity>
-7.23275

> <CNNscore>
0.3839775920

> <CNNaffinity>
6.6720809937

> <CNN_VS>
2.5619297028

> <CNNaffinity_variance>
0.5658436418

$$$$
[H]/C(=C(\[H])C([H])([H])C([H])([H])C([H])([H])C([H])([H])C([H])([H])C([H])([H])C([H])([H])C([H])([H])[H])C([H])([H])C([H])([H])C([H])([H])C([H])([H])C([H])([H])C([H])([H])C([H])([H])C(=O)c1nc2c([H])c([H])c([H])nc2o1


 28 29  0  0  0  0  0  0  0  0999 V2000
  -88.0556   32.7801   -4.2664 C   0  0  0  0  0  0  0  0  0  0  0  0
  -86.9752   32.9928   -3.3188 C   0  0  0  0  0  0  0  0  0  0  0  0
  -87.1010   33.7266   -2.0614 C   0  0  0  0  0  0  0  0  0  0  0  0
  -86.9789   32.9703   -0.7774 C   0  0  0  0  0  0  0  0  0  0  0  0
  -85.5247   32.8307   -0.3952 C   0  0  0  0  0  0  0  0  0  0  0  0
  -84.7358   33.7450   -0.7107 O   0  0  0  0  0  0  0  0  0  0  0  0
  -85.0553   31.6740    0.3147 C   0  0  0  0  0  0  0  0  0  0  0  0
  -83.7607   31.3988    0.6118 N   0  0  0  0  0  0  0  0  0  0  0  0
  -83.6865   30.2342    1.2826 C   0  0  0  0  0  0  0  0  0  0  0  0
  -82.6937   29.4672    1.8269 C   0  0  0  0  0  0  0  0  0  0  0  0
  -83.0081   28.2924    2.4614 C   0  0  0  0  0  0  0  0  0  0  0  0
  -84.3331   27.9064    2.5375 C   0  0  0  0  0  0  0  0  0  0  0  0
  -85.3299   28.6604    2.0002 N   0  0  0  0  0  0  0  0  0  0  0  0
  -85.0102   29.8080    1.3818 C   0  0  0  0  0  0  0  0  0  0  0  0
  -85.7854   30.6955    0.7926 O   0  0  0  0  0  0  0  0  0  0  0  0
  -88.6032   31.4450   -4.5628 C   0  0  0  0  0  0  0  0  0  0  0  0
  -87.9487   30.3160   -3.8440 C   0  0  0  0  0  0  0  0  0  0  0  0
  -88.8298   29.6262   -2.8132 C   0  0  0  0  0  0  0  0  0  0  0  0
  -88.9387   29.7945   -0.3864 C   0  0  0  0  0  0  0  0  0  0  0  0
  -88.2255   29.7898   -1.4854 C   0  0  0  0  0  0  0  0  0  0  0  0
  -90.3756   29.6425   -0.3420 C   0  0  0  0  0  0  0  0  0  0  0  0
  -90.8599   28.8937    0.8979 C   0  0  0  0  0  0  0  0  0  0  0  0
  -89.9784   27.7489    1.2358 C   0  0  0  0  0  0  0  0  0  0  0  0
  -90.6748   26.3883    1.2415 C   0  0  0  0  0  0  0  0  0  0  0  0
  -90.1307   25.4846    2.2809 C   0  0  0  0  0  0  0  0  0  0  0  0
  -90.6978   25.5085    3.6427 C   0  0  0  0  0  0  0  0  0  0  0  0
  -89.9124   26.7249    5.6609 C   0  0  0  0  0  0  0  0  0  0  0  0
  -90.7220   26.7729    4.4096 C   0  0  0  0  0  0  0  0  0  0  0  0
 27 28  1  0  0  0
 28 26  1  0  0  0
 26 25  1  0  0  0
 25 24  1  0  0  0
 24 23  1  0  0  0
 23 22  1  0  0  0
 22 21  1  0  0  0
 21 19  1  0  0  0
 19 20  2  0  0  0
 20 18  1  0  0  0
 18 17  1  0  0  0
 17 16  1  0  0  0
 16  1  1  0  0  0
  1  2  1  0  0  0
  2  3  1  0  0  0
  3  4  1  0  0  0
  4  5  1  0  0  0
  5  6  2  0  0  0
  5  7  1  0  0  0
  7  8  2  0  0  0
  8  9  1  0  0  0
  9 10  2  0  0  0
 10 11  1  0  0  0
 11 12  2  0  0  0
 12 13  1  0  0  0
 13 14  2  0  0  0
 14 15  1  0  0  0
 15  7  1  0  0  0
 14  9  1  0  0  0
M  END
> <minimizedAffinity>
-6.63539

> <CNNscore>
0.3601690829

> <CNNaffinity>
6.8096094131

> <CNN_VS>
2.4526107311

> <CNNaffinity_variance>
0.1583222449

$$$$
[H]/C(=C(\[H])C([H])([H])C([H])([H])C([H])([H])C([H])([H])C([H])([H])C([H])([H])C([H])([H])C([H])([H])[H])C([H])([H])C([H])([H])C([H])([H])C([H])([H])C([H])([H])C([H])([H])C([H])([H])C(=O)c1nc2c([H])c([H])c([H])nc2o1


 28 29  0  0  0  0  0  0  0  0999 V2000
  -83.4851   30.8121    0.2823 C   0  0  0  0  0  0  0  0  0  0  0  0
  -82.9759   30.1182    1.4526 C   0  0  0  0  0  0  0  0  0  0  0  0
  -83.7827   29.2953    2.3510 C   0  0  0  0  0  0  0  0  0  0  0  0
  -85.1926   28.9840    1.9623 C   0  0  0  0  0  0  0  0  0  0  0  0
  -85.4276   27.4935    2.0181 C   0  0  0  0  0  0  0  0  0  0  0  0
  -84.4943   26.7573    2.3986 O   0  0  0  0  0  0  0  0  0  0  0  0
  -86.6945   26.9310    1.6424 C   0  0  0  0  0  0  0  0  0  0  0  0
  -87.0275   26.4860    0.4051 N   0  0  0  0  0  0  0  0  0  0  0  0
  -88.2921   26.0252    0.4134 C   0  0  0  0  0  0  0  0  0  0  0  0
  -89.1503   25.4733   -0.4971 C   0  0  0  0  0  0  0  0  0  0  0  0
  -90.4156   25.1108   -0.1109 C   0  0  0  0  0  0  0  0  0  0  0  0
  -90.7988   25.3131    1.2016 C   0  0  0  0  0  0  0  0  0  0  0  0
  -89.9546   25.8611    2.1169 N   0  0  0  0  0  0  0  0  0  0  0  0
  -88.7189   26.2119    1.7275 C   0  0  0  0  0  0  0  0  0  0  0  0
  -87.7359   26.7521    2.4185 O   0  0  0  0  0  0  0  0  0  0  0  0
  -83.0498   32.1692   -0.0907 C   0  0  0  0  0  0  0  0  0  0  0  0
  -84.0989   33.0241   -0.7137 C   0  0  0  0  0  0  0  0  0  0  0  0
  -85.4872   32.8613   -0.1129 C   0  0  0  0  0  0  0  0  0  0  0  0
  -87.4169   32.1152   -1.3971 C   0  0  0  0  0  0  0  0  0  0  0  0
  -86.4867   33.0113   -1.1776 C   0  0  0  0  0  0  0  0  0  0  0  0
  -87.5742   30.8951   -0.6377 C   0  0  0  0  0  0  0  0  0  0  0  0
  -86.8180   29.7133   -1.2412 C   0  0  0  0  0  0  0  0  0  0  0  0
  -87.6867   28.8835   -2.1120 C   0  0  0  0  0  0  0  0  0  0  0  0
  -88.8671   29.6306   -2.7323 C   0  0  0  0  0  0  0  0  0  0  0  0
  -90.1565   28.9455   -2.4849 C   0  0  0  0  0  0  0  0  0  0  0  0
  -91.1038   29.5002   -1.4992 C   0  0  0  0  0  0  0  0  0  0  0  0
  -90.6535   29.2576    0.9314 C   0  0  0  0  0  0  0  0  0  0  0  0
  -91.3985   28.7527   -0.2575 C   0  0  0  0  0  0  0  0  0  0  0  0
 27 28  1  0  0  0
 28 26  1  0  0  0
 26 25  1  0  0  0
 25 24  1  0  0  0
 24 23  1  0  0  0
 23 22  1  0  0  0
 22 21  1  0  0  0
 21 19  1  0  0  0
 19 20  2  0  0  0
 20 18  1  0  0  0
 18 17  1  0  0  0
 17 16  1  0  0  0
 16  1  1  0  0  0
  1  2  1  0  0  0
  2  3  1  0  0  0
  3  4  1  0  0  0
  4  5  1  0  0  0
  5  6  2  0  0  0
  5  7  1  0  0  0
  7  8  2  0  0  0
  8  9  1  0  0  0
  9 10  2  0  0  0
 10 11  1  0  0  0
 11 12  2  0  0  0
 12 13  1  0  0  0
 13 14  2  0  0  0
 14 15  1  0  0  0
 15  7  1  0  0  0
 14  9  1  0  0  0
M  END
> <minimizedAffinity>
-6.72930

> <CNNscore>
0.2941461504

> <CNNaffinity>
6.4699182510

> <CNN_VS>
1.9031015635

> <CNNaffinity_variance>
0.7519565225

$$$$
[H]/C(=C(\[H])C([H])([H])C([H])([H])C([H])([H])C([H])([H])C([H])([H])C([H])([H])C([H])([H])C([H])([H])[H])C([H])([H])C([H])([H])C([H])([H])C([H])([H])C([H])([H])C([H])([H])C([H])([H])C(=O)c1nc2c([H])c([H])c([H])nc2o1


 28 29  0  0  0  0  0  0  0  0999 V2000
  -83.7944   31.7585    0.0945 C   0  0  0  0  0  0  0  0  0  0  0  0
  -84.3965   32.8254   -0.6861 C   0  0  0  0  0  0  0  0  0  0  0  0
  -85.7758   33.2867   -0.5439 C   0  0  0  0  0  0  0  0  0  0  0  0
  -86.8816   32.2925   -0.7008 C   0  0  0  0  0  0  0  0  0  0  0  0
  -87.4414   32.3581   -2.1016 C   0  0  0  0  0  0  0  0  0  0  0  0
  -87.7406   31.2900   -2.6739 O   0  0  0  0  0  0  0  0  0  0  0  0
  -87.6269   33.6184   -2.7647 C   0  0  0  0  0  0  0  0  0  0  0  0
  -88.6954   34.4409   -2.6172 N   0  0  0  0  0  0  0  0  0  0  0  0
  -88.5374   35.5331   -3.3877 C   0  0  0  0  0  0  0  0  0  0  0  0
  -89.2507   36.6696   -3.6517 C   0  0  0  0  0  0  0  0  0  0  0  0
  -88.7542   37.5995   -4.5294 C   0  0  0  0  0  0  0  0  0  0  0  0
  -87.5331   37.3653   -5.1331 C   0  0  0  0  0  0  0  0  0  0  0  0
  -86.8138   36.2388   -4.8790 N   0  0  0  0  0  0  0  0  0  0  0  0
  -87.3097   35.3361   -4.0183 C   0  0  0  0  0  0  0  0  0  0  0  0
  -86.8078   34.1862   -3.6166 O   0  0  0  0  0  0  0  0  0  0  0  0
  -83.5761   31.8610    1.5479 C   0  0  0  0  0  0  0  0  0  0  0  0
  -84.3181   30.8671    2.3732 C   0  0  0  0  0  0  0  0  0  0  0  0
  -84.5032   29.5087    1.7135 C   0  0  0  0  0  0  0  0  0  0  0  0
  -86.6723   28.4558    1.3731 C   0  0  0  0  0  0  0  0  0  0  0  0
  -85.7579   28.9151    2.1913 C   0  0  0  0  0  0  0  0  0  0  0  0
  -86.5651   28.4741   -0.0684 C   0  0  0  0  0  0  0  0  0  0  0  0
  -87.9115   28.6555   -0.7662 C   0  0  0  0  0  0  0  0  0  0  0  0
  -89.0171   28.8577    0.2026 C   0  0  0  0  0  0  0  0  0  0  0  0
  -90.2791   28.0475   -0.0926 C   0  0  0  0  0  0  0  0  0  0  0  0
  -91.1136   27.8501    1.1148 C   0  0  0  0  0  0  0  0  0  0  0  0
  -90.4812   27.4433    2.3842 C   0  0  0  0  0  0  0  0  0  0  0  0
  -90.0885   27.6575    4.8274 C   0  0  0  0  0  0  0  0  0  0  0  0
  -90.6494   28.2784    3.5932 C   0  0  0  0  0  0  0  0  0  0  0  0
 27 28  1  0  0  0
 28 26  1  0  0  0
 26 25  1  0  0  0
 25 24  1  0  0  0
 24 23  1  0  0  0
 23 22  1  0  0  0
 22 21  1  0  0  0
 21 19  1  0  0  0
 19 20  2  0  0  0
 20 18  1  0  0  0
 18 17  1  0  0  0
 17 16  1  0  0  0
 16  1  1  0  0  0
  1  2  1  0  0  0
  2  3  1  0  0  0
  3  4  1  0  0  0
  4  5  1  0  0  0
  5  6  2  0  0  0
  5  7  1  0  0  0
  7  8  2  0  0  0
  8  9  1  0  0  0
  9 10  2  0  0  0
 10 11  1  0  0  0
 11 12  2  0  0  0
 12 13  1  0  0  0
 13 14  2  0  0  0
 14 15  1  0  0  0
 15  7  1  0  0  0
 14  9  1  0  0  0
M  END
> <minimizedAffinity>
-6.24266

> <CNNscore>
0.2844539285

> <CNNaffinity>
6.4006867409

> <CNN_VS>
1.8207005262

> <CNNaffinity_variance>
0.3783459663

$$$$
[H]/C(=C(\[H])C([H])([H])C([H])([H])C([H])([H])C([H])([H])C([H])([H])C([H])([H])C([H])([H])C([H])([H])[H])C([H])([H])C([H])([H])C([H])([H])C([H])([H])C([H])([H])C([H])([H])C([H])([H])C(=O)c1nc2c([H])c([H])c([H])nc2o1


 28 29  0  0  0  0  0  0  0  0999 V2000
  -86.1958   29.1026   -0.5512 C   0  0  0  0  0  0  0  0  0  0  0  0
  -86.9610   28.5030   -1.6306 C   0  0  0  0  0  0  0  0  0  0  0  0
  -88.1167   29.1209   -2.2770 C   0  0  0  0  0  0  0  0  0  0  0  0
  -89.3727   28.3208   -2.4117 C   0  0  0  0  0  0  0  0  0  0  0  0
  -90.4079   28.8133   -1.4288 C   0  0  0  0  0  0  0  0  0  0  0  0
  -91.3041   29.5779   -1.8412 O   0  0  0  0  0  0  0  0  0  0  0  0
  -90.3660   28.4142   -0.0500 C   0  0  0  0  0  0  0  0  0  0  0  0
  -89.5872   27.4309    0.4663 N   0  0  0  0  0  0  0  0  0  0  0  0
  -89.8044   27.3278    1.7907 C   0  0  0  0  0  0  0  0  0  0  0  0
  -89.3339   26.5512    2.8132 C   0  0  0  0  0  0  0  0  0  0  0  0
  -89.8060   26.7396    4.0872 C   0  0  0  0  0  0  0  0  0  0  0  0
  -90.7551   27.7189    4.3115 C   0  0  0  0  0  0  0  0  0  0  0  0
  -91.2312   28.4981    3.3030 N   0  0  0  0  0  0  0  0  0  0  0  0
  -90.7619   28.3046    2.0605 C   0  0  0  0  0  0  0  0  0  0  0  0
  -91.0635   28.9228    0.9369 O   0  0  0  0  0  0  0  0  0  0  0  0
  -86.7547   29.3232    0.7939 C   0  0  0  0  0  0  0  0  0  0  0  0
  -86.1597   28.4871    1.8740 C   0  0  0  0  0  0  0  0  0  0  0  0
  -85.1144   29.1975    2.7211 C   0  0  0  0  0  0  0  0  0  0  0  0
  -82.8653   29.4555    1.8244 C   0  0  0  0  0  0  0  0  0  0  0  0
  -83.7850   28.6910    2.3594 C   0  0  0  0  0  0  0  0  0  0  0  0
  -83.0378   30.8602    1.5296 C   0  0  0  0  0  0  0  0  0  0  0  0
  -83.2162   31.1410    0.0389 C   0  0  0  0  0  0  0  0  0  0  0  0
  -83.8243   32.4719   -0.2073 C   0  0  0  0  0  0  0  0  0  0  0  0
  -85.3168   32.5593    0.1110 C   0  0  0  0  0  0  0  0  0  0  0  0
  -86.0574   33.3604   -0.8904 C   0  0  0  0  0  0  0  0  0  0  0  0
  -87.0732   32.7119   -1.7416 C   0  0  0  0  0  0  0  0  0  0  0  0
  -89.1805   32.1893   -0.5350 C   0  0  0  0  0  0  0  0  0  0  0  0
  -88.5046   33.0363   -1.5593 C   0  0  0  0  0  0  0  0  0  0  0  0
 27 28  1  0  0  0
 28 26  1  0  0  0
 26 25  1  0  0  0
 25 24  1  0  0  0
 24 23  1  0  0  0
 23 22  1  0  0  0
 22 21  1  0  0  0
 21 19  1  0  0  0
 19 20  2  0  0  0
 20 18  1  0  0  0
 18 17  1  0  0  0
 17 16  1  0  0  0
 16  1  1  0  0  0
  1  2  1  0  0  0
  2  3  1  0  0  0
  3  4  1  0  0  0
  4  5  1  0  0  0
  5  6  2  0  0  0
  5  7  1  0  0  0
  7  8  2  0  0  0
  8  9  1  0  0  0
  9 10  2  0  0  0
 10 11  1  0  0  0
 11 12  2  0  0  0
 12 13  1  0  0  0
 13 14  2  0  0  0
 14 15  1  0  0  0
 15  7  1  0  0  0
 14  9  1  0  0  0
M  END
> <minimizedAffinity>
-7.34792

> <CNNscore>
0.2438944429

> <CNNaffinity>
6.2002806664

> <CNN_VS>
1.5122139454

> <CNNaffinity_variance>
0.9573487043

$$$$
[H]/C(=C(\[H])C([H])([H])C([H])([H])C([H])([H])C([H])([H])C([H])([H])C([H])([H])C([H])([H])C([H])([H])[H])C([H])([H])C([H])([H])C([H])([H])C([H])([H])C([H])([H])C([H])([H])C([H])([H])C(=O)c1nc2c([H])c([H])c([H])nc2o1


 28 29  0  0  0  0  0  0  0  0999 V2000
  -82.9026   29.6200    1.6673 C   0  0  0  0  0  0  0  0  0  0  0  0
  -83.9796   29.0152    2.4318 C   0  0  0  0  0  0  0  0  0  0  0  0
  -85.3890   29.0346    2.0464 C   0  0  0  0  0  0  0  0  0  0  0  0
  -85.7345   28.9373    0.5949 C   0  0  0  0  0  0  0  0  0  0  0  0
  -87.2092   28.6567    0.4316 C   0  0  0  0  0  0  0  0  0  0  0  0
  -87.7547   27.8595    1.2220 O   0  0  0  0  0  0  0  0  0  0  0  0
  -87.9708   29.2900   -0.6082 C   0  0  0  0  0  0  0  0  0  0  0  0
  -89.0916   30.0326   -0.4284 N   0  0  0  0  0  0  0  0  0  0  0  0
  -89.5422   30.4702   -1.6189 C   0  0  0  0  0  0  0  0  0  0  0  0
  -90.5886   31.2309   -2.0621 C   0  0  0  0  0  0  0  0  0  0  0  0
  -90.7339   31.4775   -3.4036 C   0  0  0  0  0  0  0  0  0  0  0  0
  -89.8114   30.9472   -4.2856 C   0  0  0  0  0  0  0  0  0  0  0  0
  -88.7661   30.1890   -3.8574 N   0  0  0  0  0  0  0  0  0  0  0  0
  -88.6341   29.9544   -2.5425 C   0  0  0  0  0  0  0  0  0  0  0  0
  -87.7199   29.2613   -1.8947 O   0  0  0  0  0  0  0  0  0  0  0  0
  -82.8477   31.0625    1.3731 C   0  0  0  0  0  0  0  0  0  0  0  0
  -82.8699   31.4170   -0.0738 C   0  0  0  0  0  0  0  0  0  0  0  0
  -83.7309   32.6235   -0.4168 C   0  0  0  0  0  0  0  0  0  0  0  0
  -86.1516   32.8543   -0.5452 C   0  0  0  0  0  0  0  0  0  0  0  0
  -85.0946   32.3893    0.0736 C   0  0  0  0  0  0  0  0  0  0  0  0
  -86.1112   33.6373   -1.7598 C   0  0  0  0  0  0  0  0  0  0  0  0
  -87.2292   33.2823   -2.7379 C   0  0  0  0  0  0  0  0  0  0  0  0
  -88.4229   34.1443   -2.5546 C   0  0  0  0  0  0  0  0  0  0  0  0
  -88.6091   35.2126   -3.6318 C   0  0  0  0  0  0  0  0  0  0  0  0
  -87.9710   36.4972   -3.2635 C   0  0  0  0  0  0  0  0  0  0  0  0
  -87.7107   37.5109   -4.3034 C   0  0  0  0  0  0  0  0  0  0  0  0
  -85.7635   38.9772   -4.7810 C   0  0  0  0  0  0  0  0  0  0  0  0
  -86.3653   37.6188   -4.9082 C   0  0  0  0  0  0  0  0  0  0  0  0
 27 28  1  0  0  0
 28 26  1  0  0  0
 26 25  1  0  0  0
 25 24  1  0  0  0
 24 23  1  0  0  0
 23 22  1  0  0  0
 22 21  1  0  0  0
 21 19  1  0  0  0
 19 20  2  0  0  0
 20 18  1  0  0  0
 18 17  1  0  0  0
 17 16  1  0  0  0
 16  1  1  0  0  0
  1  2  1  0  0  0
  2  3  1  0  0  0
  3  4  1  0  0  0
  4  5  1  0  0  0
  5  6  2  0  0  0
  5  7  1  0  0  0
  7  8  2  0  0  0
  8  9  1  0  0  0
  9 10  2  0  0  0
 10 11  1  0  0  0
 11 12  2  0  0  0
 12 13  1  0  0  0
 13 14  2  0  0  0
 14 15  1  0  0  0
 15  7  1  0  0  0
 14  9  1  0  0  0
M  END
> <minimizedAffinity>
-6.52598

> <CNNscore>
0.2274216861

> <CNNaffinity>
6.2106313705

> <CNN_VS>
1.4124323130

> <CNNaffinity_variance>
0.7226451039

$$$$
[H]/C(=C(\[H])C([H])([H])C([H])([H])C([H])([H])C([H])([H])C([H])([H])C([H])([H])C([H])([H])C([H])([H])[H])C([H])([H])C([H])([H])C([H])([H])C([H])([H])C([H])([H])C([H])([H])C([H])([H])C(=O)c1nc2c([H])c([H])c([H])nc2o1


 28 29  0  0  0  0  0  0  0  0999 V2000
  -85.7452   28.6212    1.7444 C   0  0  0  0  0  0  0  0  0  0  0  0
  -85.8413   28.6649    0.2956 C   0  0  0  0  0  0  0  0  0  0  0  0
  -87.0875   28.8098   -0.4536 C   0  0  0  0  0  0  0  0  0  0  0  0
  -87.5192   27.6902   -1.3458 C   0  0  0  0  0  0  0  0  0  0  0  0
  -88.8535   27.1501   -0.8896 C   0  0  0  0  0  0  0  0  0  0  0  0
  -89.6962   26.8362   -1.7551 O   0  0  0  0  0  0  0  0  0  0  0  0
  -89.1508   26.9995    0.5074 C   0  0  0  0  0  0  0  0  0  0  0  0
  -89.8030   27.9038    1.2799 N   0  0  0  0  0  0  0  0  0  0  0  0
  -89.9059   27.4360    2.5378 C   0  0  0  0  0  0  0  0  0  0  0  0
  -90.4377   27.8780    3.7176 C   0  0  0  0  0  0  0  0  0  0  0  0
  -90.3502   27.0967    4.8416 C   0  0  0  0  0  0  0  0  0  0  0  0
  -89.7210   25.8690    4.7563 C   0  0  0  0  0  0  0  0  0  0  0  0
  -89.1880   25.4179    3.5888 N   0  0  0  0  0  0  0  0  0  0  0  0
  -89.2796   26.1911    2.4955 C   0  0  0  0  0  0  0  0  0  0  0  0
  -88.8479   25.9765    1.2694 O   0  0  0  0  0  0  0  0  0  0  0  0
  -84.5287   28.1799    2.4486 C   0  0  0  0  0  0  0  0  0  0  0  0
  -83.2847   28.9174    2.0907 C   0  0  0  0  0  0  0  0  0  0  0  0
  -83.4344   30.4311    2.0548 C   0  0  0  0  0  0  0  0  0  0  0  0
  -82.9371   31.6463    0.0041 C   0  0  0  0  0  0  0  0  0  0  0  0
  -82.5156   30.9760    1.0479 C   0  0  0  0  0  0  0  0  0  0  0  0
  -84.3258   31.9282   -0.2821 C   0  0  0  0  0  0  0  0  0  0  0  0
  -84.5431   33.3152   -0.8835 C   0  0  0  0  0  0  0  0  0  0  0  0
  -85.9501   33.7662   -0.7472 C   0  0  0  0  0  0  0  0  0  0  0  0
  -86.7101   33.8906   -2.0675 C   0  0  0  0  0  0  0  0  0  0  0  0
  -88.0909   33.3640   -1.9711 C   0  0  0  0  0  0  0  0  0  0  0  0
  -88.3178   31.9842   -1.5005 C   0  0  0  0  0  0  0  0  0  0  0  0
  -90.3316   30.5758   -1.1394 C   0  0  0  0  0  0  0  0  0  0  0  0
  -89.4735   31.6829   -0.6282 C   0  0  0  0  0  0  0  0  0  0  0  0
 27 28  1  0  0  0
 28 26  1  0  0  0
 26 25  1  0  0  0
 25 24  1  0  0  0
 24 23  1  0  0  0
 23 22  1  0  0  0
 22 21  1  0  0  0
 21 19  1  0  0  0
 19 20  2  0  0  0
 20 18  1  0  0  0
 18 17  1  0  0  0
 17 16  1  0  0  0
 16  1  1  0  0  0
  1  2  1  0  0  0
  2  3  1  0  0  0
  3  4  1  0  0  0
  4  5  1  0  0  0
  5  6  2  0  0  0
  5  7  1  0  0  0
  7  8  2  0  0  0
  8  9  1  0  0  0
  9 10  2  0  0  0
 10 11  1  0  0  0
 11 12  2  0  0  0
 12 13  1  0  0  0
 13 14  2  0  0  0
 14 15  1  0  0  0
 15  7  1  0  0  0
 14  9  1  0  0  0
M  END
> <minimizedAffinity>
-6.92493

> <CNNscore>
0.2168124467

> <CNNaffinity>
6.2991061211

> <CNN_VS>
1.3657245636

> <CNNaffinity_variance>
0.8110052943

$$$$
[H]/C(=C(\[H])C([H])([H])C([H])([H])C([H])([H])C([H])([H])C([H])([H])C([H])([H])C([H])([H])C([H])([H])[H])C([H])([H])C([H])([H])C([H])([H])C([H])([H])C([H])([H])C([H])([H])C([H])([H])C(=O)c1nc2c([H])c([H])c([H])nc2o1


 28 29  0  0  0  0  0  0  0  0999 V2000
  -84.7557   32.3415   -0.2924 C   0  0  0  0  0  0  0  0  0  0  0  0
  -85.7238   33.4007   -0.5182 C   0  0  0  0  0  0  0  0  0  0  0  0
  -87.0723   33.1999   -1.0442 C   0  0  0  0  0  0  0  0  0  0  0  0
  -87.2266   32.7413   -2.4590 C   0  0  0  0  0  0  0  0  0  0  0  0
  -88.2372   33.6047   -3.1755 C   0  0  0  0  0  0  0  0  0  0  0  0
  -89.4487   33.3316   -3.0506 O   0  0  0  0  0  0  0  0  0  0  0  0
  -87.8188   34.7156   -3.9837 C   0  0  0  0  0  0  0  0  0  0  0  0
  -87.3837   35.9133   -3.5189 N   0  0  0  0  0  0  0  0  0  0  0  0
  -87.0761   36.7174   -4.5536 C   0  0  0  0  0  0  0  0  0  0  0  0
  -86.6057   37.9918   -4.7107 C   0  0  0  0  0  0  0  0  0  0  0  0
  -86.4058   38.4957   -5.9708 C   0  0  0  0  0  0  0  0  0  0  0  0
  -86.6867   37.6972   -7.0634 C   0  0  0  0  0  0  0  0  0  0  0  0
  -87.1550   36.4280   -6.9205 N   0  0  0  0  0  0  0  0  0  0  0  0
  -87.3467   35.9457   -5.6827 C   0  0  0  0  0  0  0  0  0  0  0  0
  -87.7850   34.7659   -5.2934 O   0  0  0  0  0  0  0  0  0  0  0  0
  -83.3011   32.5736   -0.3187 C   0  0  0  0  0  0  0  0  0  0  0  0
  -82.4796   31.5349    0.3638 C   0  0  0  0  0  0  0  0  0  0  0  0
  -83.1513   30.8844    1.5640 C   0  0  0  0  0  0  0  0  0  0  0  0
  -83.2396   28.5715    2.3203 C   0  0  0  0  0  0  0  0  0  0  0  0
  -82.5677   29.5536    1.7721 C   0  0  0  0  0  0  0  0  0  0  0  0
  -84.6072   28.6702    2.7783 C   0  0  0  0  0  0  0  0  0  0  0  0
  -85.6118   28.0715    1.7959 C   0  0  0  0  0  0  0  0  0  0  0  0
  -86.2985   29.1163    0.9969 C   0  0  0  0  0  0  0  0  0  0  0  0
  -85.9588   29.1049   -0.4933 C   0  0  0  0  0  0  0  0  0  0  0  0
  -87.0248   28.4757   -1.3064 C   0  0  0  0  0  0  0  0  0  0  0  0
  -88.1388   29.2976   -1.8166 C   0  0  0  0  0  0  0  0  0  0  0  0
  -90.4561   29.9428   -1.1975 C   0  0  0  0  0  0  0  0  0  0  0  0
  -89.0041   30.0360   -0.8713 C   0  0  0  0  0  0  0  0  0  0  0  0
 27 28  1  0  0  0
 28 26  1  0  0  0
 26 25  1  0  0  0
 25 24  1  0  0  0
 24 23  1  0  0  0
 23 22  1  0  0  0
 22 21  1  0  0  0
 21 19  1  0  0  0
 19 20  2  0  0  0
 20 18  1  0  0  0
 18 17  1  0  0  0
 17 16  1  0  0  0
 16  1  1  0  0  0
  1  2  1  0  0  0
  2  3  1  0  0  0
  3  4  1  0  0  0
  4  5  1  0  0  0
  5  6  2  0  0  0
  5  7  1  0  0  0
  7  8  2  0  0  0
  8  9  1  0  0  0
  9 10  2  0  0  0
 10 11  1  0  0  0
 11 12  2  0  0  0
 12 13  1  0  0  0
 13 14  2  0  0  0
 14 15  1  0  0  0
 15  7  1  0  0  0
 14  9  1  0  0  0
M  END
> <minimizedAffinity>
-7.02917

> <CNNscore>
0.2154915929

> <CNNaffinity>
6.1293206215

> <CNN_VS>
1.3208171129

> <CNNaffinity_variance>
0.5064726472

$$$$
[H]/C(=C(\[H])C([H])([H])C([H])([H])C([H])([H])C([H])([H])C([H])([H])C([H])([H])C([H])([H])C([H])([H])[H])C([H])([H])C([H])([H])C([H])([H])C([H])([H])C([H])([H])C([H])([H])C([H])([H])C(=O)c1nc2c([H])c([H])c([H])nc2o1


 28 29  0  0  0  0  0  0  0  0999 V2000
  -82.7223   31.7257    0.1027 C   0  0  0  0  0  0  0  0  0  0  0  0
  -83.0822   31.1036    1.3650 C   0  0  0  0  0  0  0  0  0  0  0  0
  -83.4120   29.6900    1.5341 C   0  0  0  0  0  0  0  0  0  0  0  0
  -84.5045   29.3199    2.4854 C   0  0  0  0  0  0  0  0  0  0  0  0
  -84.8575   27.8605    2.3256 C   0  0  0  0  0  0  0  0  0  0  0  0
  -83.9928   27.0047    2.6047 O   0  0  0  0  0  0  0  0  0  0  0  0
  -86.1571   27.4612    1.8630 C   0  0  0  0  0  0  0  0  0  0  0  0
  -87.3292   28.0690    2.1737 N   0  0  0  0  0  0  0  0  0  0  0  0
  -88.3468   27.4302    1.5668 C   0  0  0  0  0  0  0  0  0  0  0  0
  -89.7056   27.5703    1.5028 C   0  0  0  0  0  0  0  0  0  0  0  0
  -90.4481   26.6946    0.7522 C   0  0  0  0  0  0  0  0  0  0  0  0
  -89.8008   25.6811    0.0709 C   0  0  0  0  0  0  0  0  0  0  0  0
  -88.4498   25.5310    0.1264 N   0  0  0  0  0  0  0  0  0  0  0  0
  -87.7337   26.3939    0.8642 C   0  0  0  0  0  0  0  0  0  0  0  0
  -86.4340   26.4537    1.0710 O   0  0  0  0  0  0  0  0  0  0  0  0
  -83.2072   33.0589   -0.2947 C   0  0  0  0  0  0  0  0  0  0  0  0
  -84.4809   33.0672   -1.0676 C   0  0  0  0  0  0  0  0  0  0  0  0
  -85.7386   33.1363   -0.2144 C   0  0  0  0  0  0  0  0  0  0  0  0
  -87.6627   31.6949   -0.6012 C   0  0  0  0  0  0  0  0  0  0  0  0
  -86.4084   31.8305   -0.2480 C   0  0  0  0  0  0  0  0  0  0  0  0
  -88.5257   32.7864   -0.9934 C   0  0  0  0  0  0  0  0  0  0  0  0
  -88.9835   32.6943   -2.4476 C   0  0  0  0  0  0  0  0  0  0  0  0
  -87.9481   33.1877   -3.3889 C   0  0  0  0  0  0  0  0  0  0  0  0
  -87.5484   34.6492   -3.1877 C   0  0  0  0  0  0  0  0  0  0  0  0
  -88.6969   35.5709   -3.3444 C   0  0  0  0  0  0  0  0  0  0  0  0
  -89.2469   35.8346   -4.6878 C   0  0  0  0  0  0  0  0  0  0  0  0
  -87.6127   36.2931   -6.5012 C   0  0  0  0  0  0  0  0  0  0  0  0
  -88.6188   36.8549   -5.5550 C   0  0  0  0  0  0  0  0  0  0  0  0
 27 28  1  0  0  0
 28 26  1  0  0  0
 26 25  1  0  0  0
 25 24  1  0  0  0
 24 23  1  0  0  0
 23 22  1  0  0  0
 22 21  1  0  0  0
 21 19  1  0  0  0
 19 20  2  0  0  0
 20 18  1  0  0  0
 18 17  1  0  0  0
 17 16  1  0  0  0
 16  1  1  0  0  0
  1  2  1  0  0  0
  2  3  1  0  0  0
  3  4  1  0  0  0
  4  5  1  0  0  0
  5  6  2  0  0  0
  5  7  1  0  0  0
  7  8  2  0  0  0
  8  9  1  0  0  0
  9 10  2  0  0  0
 10 11  1  0  0  0
 11 12  2  0  0  0
 12 13  1  0  0  0
 13 14  2  0  0  0
 14 15  1  0  0  0
 15  7  1  0  0  0
 14  9  1  0  0  0
M  END
> <minimizedAffinity>
-6.86394

> <CNNscore>
0.2050067633

> <CNNaffinity>
6.2415547371

> <CNN_VS>
1.2795609236

> <CNNaffinity_variance>
0.5575193763

$$$$
[H]c1c([H])c([H])c(C([H])([H])C([H])([H])C([H])([H])[H])c(OC([H])(C2=NC([H])([H])C([H])([H])N2[H])C([H])([H])[H])c1[H]


 18 19  0  0  0  0  0  0  0  0999 V2000
  -85.1953   31.0353    0.3611 C   0  0  0  0  0  0  0  0  0  0  0  0
  -83.9845   30.9561    1.0124 C   0  0  0  0  0  0  0  0  0  0  0  0
  -82.9612   31.8485    0.7718 C   0  0  0  0  0  0  0  0  0  0  0  0
  -83.1248   32.8655   -0.1453 C   0  0  0  0  0  0  0  0  0  0  0  0
  -84.3292   32.9622   -0.8074 C   0  0  0  0  0  0  0  0  0  0  0  0
  -85.3516   32.0715   -0.5681 C   0  0  0  0  0  0  0  0  0  0  0  0
  -86.3046   30.1039    0.5845 C   0  0  0  0  0  0  0  0  0  0  0  0
  -87.0070   28.6797   -1.3356 C   0  0  0  0  0  0  0  0  0  0  0  0
  -86.0997   28.7695   -0.1023 C   0  0  0  0  0  0  0  0  0  0  0  0
  -86.5535   32.1365   -1.2020 O   0  0  0  0  0  0  0  0  0  0  0  0
  -87.5648   33.0662   -1.0543 C   0  0  0  0  0  0  0  0  0  0  0  0
  -88.9002   32.4783   -0.7227 C   0  0  0  0  0  0  0  0  0  0  0  0
  -87.7067   33.9381   -2.2814 C   0  0  0  0  0  0  0  0  0  0  0  0
  -88.8422   34.3637   -2.6946 N   0  0  0  0  0  0  0  0  0  0  0  0
  -88.6898   35.1640   -3.8724 C   0  0  0  0  0  0  0  0  0  0  0  0
  -87.2530   34.9654   -4.2997 C   0  0  0  0  0  0  0  0  0  0  0  0
  -86.6625   34.3932   -3.1172 N   0  0  0  0  0  0  0  0  0  0  0  0
  -85.6224   34.3238   -2.9062 H   0  0  0  0  0  0  0  0  0  0  0  0
  8  9  1  0  0  0
  9  7  1  0  0  0
  7  1  1  0  0  0
  1  2  2  0  0  0
  2  3  1  0  0  0
  3  4  2  0  0  0
  4  5  1  0  0  0
  5  6  2  0  0  0
  6 10  1  0  0  0
 10 11  1  0  0  0
 11 12  1  0  0  0
 11 13  1  0  0  0
 13 14  2  0  0  0
 14 15  1  0  0  0
 15 16  1  0  0  0
 16 17  1  0  0  0
  6  1  1  0  0  0
 17 13  1  0  0  0
 17 18  1  0  0  0
M  END
> <minimizedAffinity>
-6.40985

> <CNNscore>
0.6114944220

> <CNNaffinity>
5.1856565475

> <CNN_VS>
3.1710000038

> <CNNaffinity_variance>
0.2194075137

$$$$
[H]c1c([H])c([H])c(C([H])([H])C([H])([H])C([H])([H])[H])c(OC([H])(C2=NC([H])([H])C([H])([H])N2[H])C([H])([H])[H])c1[H]


 18 19  0  0  0  0  0  0  0  0999 V2000
  -85.5376   31.6392   -0.1604 C   0  0  0  0  0  0  0  0  0  0  0  0
  -84.9396   32.8574   -0.3946 C   0  0  0  0  0  0  0  0  0  0  0  0
  -83.5804   33.0465   -0.2597 C   0  0  0  0  0  0  0  0  0  0  0  0
  -82.7657   32.0005    0.1205 C   0  0  0  0  0  0  0  0  0  0  0  0
  -83.3447   30.7734    0.3593 C   0  0  0  0  0  0  0  0  0  0  0  0
  -84.7019   30.5835    0.2252 C   0  0  0  0  0  0  0  0  0  0  0  0
  -86.9779   31.3992   -0.2874 C   0  0  0  0  0  0  0  0  0  0  0  0
  -89.2243   32.3858   -0.7221 C   0  0  0  0  0  0  0  0  0  0  0  0
  -87.7138   32.5605   -0.9233 C   0  0  0  0  0  0  0  0  0  0  0  0
  -85.3079   29.3868    0.4517 O   0  0  0  0  0  0  0  0  0  0  0  0
  -85.6869   28.8181    1.6525 C   0  0  0  0  0  0  0  0  0  0  0  0
  -84.5774   28.1378    2.3908 C   0  0  0  0  0  0  0  0  0  0  0  0
  -86.8256   27.8396    1.4733 C   0  0  0  0  0  0  0  0  0  0  0  0
  -87.6635   27.5815    2.4074 N   0  0  0  0  0  0  0  0  0  0  0  0
  -88.6344   26.6230    1.9720 C   0  0  0  0  0  0  0  0  0  0  0  0
  -88.1133   26.1083    0.6491 C   0  0  0  0  0  0  0  0  0  0  0  0
  -87.1243   27.0983    0.3082 N   0  0  0  0  0  0  0  0  0  0  0  0
  -86.6919   27.2484   -0.6519 H   0  0  0  0  0  0  0  0  0  0  0  0
  8  9  1  0  0  0
  9  7  1  0  0  0
  7  1  1  0  0  0
  1  2  2  0  0  0
  2  3  1  0  0  0
  3  4  2  0  0  0
  4  5  1  0  0  0
  5  6  2  0  0  0
  6 10  1  0  0  0
 10 11  1  0  0  0
 11 12  1  0  0  0
 11 13  1  0  0  0
 13 14  2  0  0  0
 14 15  1  0  0  0
 15 16  1  0  0  0
 16 17  1  0  0  0
  6  1  1  0  0  0
 17 13  1  0  0  0
 17 18  1  0  0  0
M  END
> <minimizedAffinity>
-6.59970

> <CNNscore>
0.5863302350

> <CNNaffinity>
5.3475470543

> <CNN_VS>
3.1354284286

> <CNNaffinity_variance>
0.1603969932

$$$$
[H]c1c([H])c([H])c(C([H])([H])C([H])([H])C([H])([H])[H])c(OC([H])(C2=NC([H])([H])C([H])([H])N2[H])C([H])([H])[H])c1[H]


 18 19  0  0  0  0  0  0  0  0999 V2000
  -84.3703   30.4827    0.7840 C   0  0  0  0  0  0  0  0  0  0  0  0
  -83.0175   30.7386    0.8129 C   0  0  0  0  0  0  0  0  0  0  0  0
  -82.4786   31.9005    0.3021 C   0  0  0  0  0  0  0  0  0  0  0  0
  -83.2952   32.8579   -0.2627 C   0  0  0  0  0  0  0  0  0  0  0  0
  -84.6518   32.6209   -0.3010 C   0  0  0  0  0  0  0  0  0  0  0  0
  -85.1910   31.4609    0.2085 C   0  0  0  0  0  0  0  0  0  0  0  0
  -84.9809   29.2589    1.3108 C   0  0  0  0  0  0  0  0  0  0  0  0
  -83.5488   27.7761    2.7106 C   0  0  0  0  0  0  0  0  0  0  0  0
  -84.5420   28.9448    2.7261 C   0  0  0  0  0  0  0  0  0  0  0  0
  -86.5247   31.1934    0.1886 O   0  0  0  0  0  0  0  0  0  0  0  0
  -87.4027   31.2304   -0.8776 C   0  0  0  0  0  0  0  0  0  0  0  0
  -88.5349   32.1945   -0.7117 C   0  0  0  0  0  0  0  0  0  0  0  0
  -87.9681   29.8620   -1.1843 C   0  0  0  0  0  0  0  0  0  0  0  0
  -88.2081   29.4697   -2.3800 N   0  0  0  0  0  0  0  0  0  0  0  0
  -88.7384   28.1394   -2.3843 C   0  0  0  0  0  0  0  0  0  0  0  0
  -89.0420   27.8323   -0.9351 C   0  0  0  0  0  0  0  0  0  0  0  0
  -88.3013   28.8584   -0.2474 N   0  0  0  0  0  0  0  0  0  0  0  0
  -88.0473   28.8633    0.7855 H   0  0  0  0  0  0  0  0  0  0  0  0
  8  9  1  0  0  0
  9  7  1  0  0  0
  7  1  1  0  0  0
  1  2  2  0  0  0
  2  3  1  0  0  0
  3  4  2  0  0  0
  4  5  1  0  0  0
  5  6  2  0  0  0
  6 10  1  0  0  0
 10 11  1  0  0  0
 11 12  1  0  0  0
 11 13  1  0  0  0
 13 14  2  0  0  0
 14 15  1  0  0  0
 15 16  1  0  0  0
 16 17  1  0  0  0
  6  1  1  0  0  0
 17 13  1  0  0  0
 17 18  1  0  0  0
M  END
> <minimizedAffinity>
-6.91727

> <CNNscore>
0.5443017483

> <CNNaffinity>
5.3272743225

> <CNN_VS>
2.8996446133

> <CNNaffinity_variance>
0.2047177255

$$$$
[H]c1c([H])c([H])c(C([H])([H])C([H])([H])C([H])([H])[H])c(OC([H])(C2=NC([H])([H])C([H])([H])N2[H])C([H])([H])[H])c1[H]


 18 19  0  0  0  0  0  0  0  0999 V2000
  -85.0023   31.2495    0.3853 C   0  0  0  0  0  0  0  0  0  0  0  0
  -83.7594   31.8415    0.4191 C   0  0  0  0  0  0  0  0  0  0  0  0
  -82.6713   31.2322    1.0076 C   0  0  0  0  0  0  0  0  0  0  0  0
  -82.7997   29.9885    1.5900 C   0  0  0  0  0  0  0  0  0  0  0  0
  -84.0352   29.3793    1.5664 C   0  0  0  0  0  0  0  0  0  0  0  0
  -85.1223   29.9868    0.9792 C   0  0  0  0  0  0  0  0  0  0  0  0
  -86.1836   31.8660   -0.2251 C   0  0  0  0  0  0  0  0  0  0  0  0
  -86.6956   33.6794   -1.8556 C   0  0  0  0  0  0  0  0  0  0  0  0
  -85.9837   33.3338   -0.5417 C   0  0  0  0  0  0  0  0  0  0  0  0
  -86.3561   29.4154    0.9365 O   0  0  0  0  0  0  0  0  0  0  0  0
  -86.7245   28.1785    0.4431 C   0  0  0  0  0  0  0  0  0  0  0  0
  -87.1655   28.1906   -0.9866 C   0  0  0  0  0  0  0  0  0  0  0  0
  -87.8088   27.5416    1.2828 C   0  0  0  0  0  0  0  0  0  0  0  0
  -87.5958   26.5116    2.0141 N   0  0  0  0  0  0  0  0  0  0  0  0
  -88.7896   26.1164    2.6996 C   0  0  0  0  0  0  0  0  0  0  0  0
  -89.8937   26.9370    2.0718 C   0  0  0  0  0  0  0  0  0  0  0  0
  -89.1534   27.9633    1.3839 N   0  0  0  0  0  0  0  0  0  0  0  0
  -89.5467   28.8802    1.0152 H   0  0  0  0  0  0  0  0  0  0  0  0
  8  9  1  0  0  0
  9  7  1  0  0  0
  7  1  1  0  0  0
  1  2  2  0  0  0
  2  3  1  0  0  0
  3  4  2  0  0  0
  4  5  1  0  0  0
  5  6  2  0  0  0
  6 10  1  0  0  0
 10 11  1  0  0  0
 11 12  1  0  0  0
 11 13  1  0  0  0
 13 14  2  0  0  0
 14 15  1  0  0  0
 15 16  1  0  0  0
 16 17  1  0  0  0
  6  1  1  0  0  0
 17 13  1  0  0  0
 17 18  1  0  0  0
M  END
> <minimizedAffinity>
-6.66703

> <CNNscore>
0.5441226363

> <CNNaffinity>
5.2673821449

> <CNN_VS>
2.8661017418

> <CNNaffinity_variance>
0.1634065062

$$$$
[H]c1c([H])c([H])c(C([H])([H])C([H])([H])C([H])([H])[H])c(OC([H])(C2=NC([H])([H])C([H])([H])N2[H])C([H])([H])[H])c1[H]


 18 19  0  0  0  0  0  0  0  0999 V2000
  -84.8461   30.7390    0.3349 C   0  0  0  0  0  0  0  0  0  0  0  0
  -83.4825   30.8955    0.4470 C   0  0  0  0  0  0  0  0  0  0  0  0
  -82.8432   32.0583    0.0721 C   0  0  0  0  0  0  0  0  0  0  0  0
  -83.5655   33.1181   -0.4352 C   0  0  0  0  0  0  0  0  0  0  0  0
  -84.9312   32.9815   -0.5551 C   0  0  0  0  0  0  0  0  0  0  0  0
  -85.5706   31.8208   -0.1813 C   0  0  0  0  0  0  0  0  0  0  0  0
  -85.5616   29.5183    0.7168 C   0  0  0  0  0  0  0  0  0  0  0  0
  -85.1292   29.2954    3.1606 C   0  0  0  0  0  0  0  0  0  0  0  0
  -84.8314   28.7144    1.7727 C   0  0  0  0  0  0  0  0  0  0  0  0
  -86.9163   31.6506   -0.2847 O   0  0  0  0  0  0  0  0  0  0  0  0
  -87.8291   32.3732   -1.0288 C   0  0  0  0  0  0  0  0  0  0  0  0
  -89.2379   32.2849   -0.5325 C   0  0  0  0  0  0  0  0  0  0  0  0
  -87.8000   31.9773   -2.4878 C   0  0  0  0  0  0  0  0  0  0  0  0
  -87.8412   32.8391   -3.4348 N   0  0  0  0  0  0  0  0  0  0  0  0
  -87.8010   32.1951   -4.7133 C   0  0  0  0  0  0  0  0  0  0  0  0
  -87.9867   30.7237   -4.4187 C   0  0  0  0  0  0  0  0  0  0  0  0
  -87.7269   30.6639   -3.0033 N   0  0  0  0  0  0  0  0  0  0  0  0
  -87.5161   29.7862   -2.4407 H   0  0  0  0  0  0  0  0  0  0  0  0
  8  9  1  0  0  0
  9  7  1  0  0  0
  7  1  1  0  0  0
  1  2  2  0  0  0
  2  3  1  0  0  0
  3  4  2  0  0  0
  4  5  1  0  0  0
  5  6  2  0  0  0
  6 10  1  0  0  0
 10 11  1  0  0  0
 11 12  1  0  0  0
 11 13  1  0  0  0
 13 14  2  0  0  0
 14 15  1  0  0  0
 15 16  1  0  0  0
 16 17  1  0  0  0
  6  1  1  0  0  0
 17 13  1  0  0  0
 17 18  1  0  0  0
M  END
> <minimizedAffinity>
-6.69059

> <CNNscore>
0.5260410905

> <CNNaffinity>
5.0569915771

> <CNN_VS>
2.6601853371

> <CNNaffinity_variance>
0.3482861519

$$$$
[H]c1c([H])c([H])c(C([H])([H])C([H])([H])C([H])([H])[H])c(OC([H])(C2=NC([H])([H])C([H])([H])N2[H])C([H])([H])[H])c1[H]


 18 19  0  0  0  0  0  0  0  0999 V2000
  -85.3153   31.0806    0.4214 C   0  0  0  0  0  0  0  0  0  0  0  0
  -84.1168   31.5291    0.9300 C   0  0  0  0  0  0  0  0  0  0  0  0
  -83.2510   30.6992    1.6105 C   0  0  0  0  0  0  0  0  0  0  0  0
  -83.5671   29.3707    1.8044 C   0  0  0  0  0  0  0  0  0  0  0  0
  -84.7618   28.9024    1.3030 C   0  0  0  0  0  0  0  0  0  0  0  0
  -85.6271   29.7302    0.6235 C   0  0  0  0  0  0  0  0  0  0  0  0
  -86.2643   31.9314   -0.3022 C   0  0  0  0  0  0  0  0  0  0  0  0
  -86.3194   33.6269   -2.1274 C   0  0  0  0  0  0  0  0  0  0  0  0
  -85.6333   33.2068   -0.8215 C   0  0  0  0  0  0  0  0  0  0  0  0
  -86.8140   29.3029    0.1142 O   0  0  0  0  0  0  0  0  0  0  0  0
  -87.0475   28.4022   -0.9073 C   0  0  0  0  0  0  0  0  0  0  0  0
  -87.5410   29.0225   -2.1764 C   0  0  0  0  0  0  0  0  0  0  0  0
  -88.0134   27.3175   -0.4867 C   0  0  0  0  0  0  0  0  0  0  0  0
  -89.1402   27.5768    0.0649 N   0  0  0  0  0  0  0  0  0  0  0  0
  -89.8534   26.3706    0.3608 C   0  0  0  0  0  0  0  0  0  0  0  0
  -88.8566   25.2573    0.1292 C   0  0  0  0  0  0  0  0  0  0  0  0
  -87.8302   25.9240   -0.6301 N   0  0  0  0  0  0  0  0  0  0  0  0
  -87.0661   25.4530   -1.2007 H   0  0  0  0  0  0  0  0  0  0  0  0
  8  9  1  0  0  0
  9  7  1  0  0  0
  7  1  1  0  0  0
  1  2  2  0  0  0
  2  3  1  0  0  0
  3  4  2  0  0  0
  4  5  1  0  0  0
  5  6  2  0  0  0
  6 10  1  0  0  0
 10 11  1  0  0  0
 11 12  1  0  0  0
 11 13  1  0  0  0
 13 14  2  0  0  0
 14 15  1  0  0  0
 15 16  1  0  0  0
 16 17  1  0  0  0
  6  1  1  0  0  0
 17 13  1  0  0  0
 17 18  1  0  0  0
M  END
> <minimizedAffinity>
-6.40724

> <CNNscore>
0.4935828149

> <CNNaffinity>
5.2613973618

> <CNN_VS>
2.5969352722

> <CNNaffinity_variance>
0.1900825053

$$$$
[H]c1c([H])c([H])c(C([H])([H])C([H])([H])C([H])([H])[H])c(OC([H])(C2=NC([H])([H])C([H])([H])N2[H])C([H])([H])[H])c1[H]


 18 19  0  0  0  0  0  0  0  0999 V2000
  -85.1254   31.2798    0.4330 C   0  0  0  0  0  0  0  0  0  0  0  0
  -83.8083   31.6811    0.4581 C   0  0  0  0  0  0  0  0  0  0  0  0
  -82.8236   30.9322    1.0671 C   0  0  0  0  0  0  0  0  0  0  0  0
  -83.1361   29.7367    1.6799 C   0  0  0  0  0  0  0  0  0  0  0  0
  -84.4484   29.3174    1.6656 C   0  0  0  0  0  0  0  0  0  0  0  0
  -85.4325   30.0646    1.0579 C   0  0  0  0  0  0  0  0  0  0  0  0
  -86.2011   32.0492   -0.1984 C   0  0  0  0  0  0  0  0  0  0  0  0
  -86.4965   33.7537   -1.9919 C   0  0  0  0  0  0  0  0  0  0  0  0
  -85.7387   33.3993   -0.7064 C   0  0  0  0  0  0  0  0  0  0  0  0
  -86.7375   29.6820    1.0236 O   0  0  0  0  0  0  0  0  0  0  0  0
  -87.3028   28.5740    0.4220 C   0  0  0  0  0  0  0  0  0  0  0  0
  -86.9635   28.4178   -1.0269 C   0  0  0  0  0  0  0  0  0  0  0  0
  -88.8071   28.5610    0.5749 C   0  0  0  0  0  0  0  0  0  0  0  0
  -89.3987   27.8919    1.4934 N   0  0  0  0  0  0  0  0  0  0  0  0
  -90.8190   28.0548    1.4093 C   0  0  0  0  0  0  0  0  0  0  0  0
  -91.0571   28.7578    0.0919 C   0  0  0  0  0  0  0  0  0  0  0  0
  -89.7421   29.2490   -0.2303 N   0  0  0  0  0  0  0  0  0  0  0  0
  -89.5111   29.9990   -0.9483 H   0  0  0  0  0  0  0  0  0  0  0  0
  8  9  1  0  0  0
  9  7  1  0  0  0
  7  1  1  0  0  0
  1  2  2  0  0  0
  2  3  1  0  0  0
  3  4  2  0  0  0
  4  5  1  0  0  0
  5  6  2  0  0  0
  6 10  1  0  0  0
 10 11  1  0  0  0
 11 12  1  0  0  0
 11 13  1  0  0  0
 13 14  2  0  0  0
 14 15  1  0  0  0
 15 16  1  0  0  0
 16 17  1  0  0  0
  6  1  1  0  0  0
 17 13  1  0  0  0
 17 18  1  0  0  0
M  END
> <minimizedAffinity>
-6.46843

> <CNNscore>
0.4537618160

> <CNNaffinity>
5.1551618576

> <CNN_VS>
2.3392155170

> <CNNaffinity_variance>
0.1955351532

$$$$
[H]c1c([H])c([H])c(C([H])([H])C([H])([H])C([H])([H])[H])c(OC([H])(C2=NC([H])([H])C([H])([H])N2[H])C([H])([H])[H])c1[H]


 18 19  0  0  0  0  0  0  0  0999 V2000
  -84.8085   30.8779    0.9086 C   0  0  0  0  0  0  0  0  0  0  0  0
  -83.4552   30.7846    1.1460 C   0  0  0  0  0  0  0  0  0  0  0  0
  -82.5507   31.6700    0.5989 C   0  0  0  0  0  0  0  0  0  0  0  0
  -82.9844   32.6941   -0.2169 C   0  0  0  0  0  0  0  0  0  0  0  0
  -84.3348   32.8047   -0.4665 C   0  0  0  0  0  0  0  0  0  0  0  0
  -85.2388   31.9210    0.0790 C   0  0  0  0  0  0  0  0  0  0  0  0
  -85.8005   29.9543    1.4663 C   0  0  0  0  0  0  0  0  0  0  0  0
  -85.0895   27.6458    2.0782 C   0  0  0  0  0  0  0  0  0  0  0  0
  -85.6368   28.5373    0.9565 C   0  0  0  0  0  0  0  0  0  0  0  0
  -86.5783   31.9999   -0.1447 O   0  0  0  0  0  0  0  0  0  0  0  0
  -87.2628   31.9635   -1.3444 C   0  0  0  0  0  0  0  0  0  0  0  0
  -88.1600   33.1378   -1.5791 C   0  0  0  0  0  0  0  0  0  0  0  0
  -88.0722   30.6945   -1.4884 C   0  0  0  0  0  0  0  0  0  0  0  0
  -89.3171   30.6361   -1.1917 N   0  0  0  0  0  0  0  0  0  0  0  0
  -89.8353   29.3207   -1.4202 C   0  0  0  0  0  0  0  0  0  0  0  0
  -88.6203   28.4591   -1.6809 C   0  0  0  0  0  0  0  0  0  0  0  0
  -87.6036   29.4436   -1.9483 N   0  0  0  0  0  0  0  0  0  0  0  0
  -86.6629   29.2642   -2.4112 H   0  0  0  0  0  0  0  0  0  0  0  0
  8  9  1  0  0  0
  9  7  1  0  0  0
  7  1  1  0  0  0
  1  2  2  0  0  0
  2  3  1  0  0  0
  3  4  2  0  0  0
  4  5  1  0  0  0
  5  6  2  0  0  0
  6 10  1  0  0  0
 10 11  1  0  0  0
 11 12  1  0  0  0
 11 13  1  0  0  0
 13 14  2  0  0  0
 14 15  1  0  0  0
 15 16  1  0  0  0
 16 17  1  0  0  0
  6  1  1  0  0  0
 17 13  1  0  0  0
 17 18  1  0  0  0
M  END
> <minimizedAffinity>
-6.19355

> <CNNscore>
0.4515818655

> <CNNaffinity>
5.1984515190

> <CNN_VS>
2.3475265503

> <CNNaffinity_variance>
0.1913255006

$$$$
[H]c1c([H])c([H])c(C([H])([H])C([H])([H])C([H])([H])[H])c(OC([H])(C2=NC([H])([H])C([H])([H])N2[H])C([H])([H])[H])c1[H]


 18 19  0  0  0  0  0  0  0  0999 V2000
  -85.3991   30.8700    0.2024 C   0  0  0  0  0  0  0  0  0  0  0  0
  -84.7436   32.0808    0.1781 C   0  0  0  0  0  0  0  0  0  0  0  0
  -85.3255   33.2210   -0.3348 C   0  0  0  0  0  0  0  0  0  0  0  0
  -86.6053   33.1800   -0.8473 C   0  0  0  0  0  0  0  0  0  0  0  0
  -87.2782   31.9779   -0.8320 C   0  0  0  0  0  0  0  0  0  0  0  0
  -86.6981   30.8388   -0.3203 C   0  0  0  0  0  0  0  0  0  0  0  0
  -84.8138   29.6356    0.7333 C   0  0  0  0  0  0  0  0  0  0  0  0
  -82.6581   29.3177    1.9420 C   0  0  0  0  0  0  0  0  0  0  0  0
  -84.0945   29.8445    2.0499 C   0  0  0  0  0  0  0  0  0  0  0  0
  -87.3321   29.6356   -0.2880 O   0  0  0  0  0  0  0  0  0  0  0  0
  -87.2580   28.5897   -1.1878 C   0  0  0  0  0  0  0  0  0  0  0  0
  -87.8370   28.8915   -2.5341 C   0  0  0  0  0  0  0  0  0  0  0  0
  -87.9103   27.3380   -0.6456 C   0  0  0  0  0  0  0  0  0  0  0  0
  -88.6806   26.6013   -1.3563 N   0  0  0  0  0  0  0  0  0  0  0  0
  -89.1612   25.4850   -0.5988 C   0  0  0  0  0  0  0  0  0  0  0  0
  -88.7592   25.7765    0.8295 C   0  0  0  0  0  0  0  0  0  0  0  0
  -87.7771   26.8164    0.6606 N   0  0  0  0  0  0  0  0  0  0  0  0
  -87.0725   27.1381    1.3895 H   0  0  0  0  0  0  0  0  0  0  0  0
  8  9  1  0  0  0
  9  7  1  0  0  0
  7  1  1  0  0  0
  1  2  2  0  0  0
  2  3  1  0  0  0
  3  4  2  0  0  0
  4  5  1  0  0  0
  5  6  2  0  0  0
  6 10  1  0  0  0
 10 11  1  0  0  0
 11 12  1  0  0  0
 11 13  1  0  0  0
 13 14  2  0  0  0
 14 15  1  0  0  0
 15 16  1  0  0  0
 16 17  1  0  0  0
  6  1  1  0  0  0
 17 13  1  0  0  0
 17 18  1  0  0  0
M  END
> <minimizedAffinity>
-6.48657

> <CNNscore>
0.4511934817

> <CNNaffinity>
5.1369538307

> <CNN_VS>
2.3177599907

> <CNNaffinity_variance>
0.2521440089

$$$$
[H]C1=C2C([H])([H])C([H])([H])C([H])([H])C([H])([H])[C@]2([H])/C(=C(\[H])C([H])([H])C2([H])C([H])([H])C([H])([H])C(C([H])([H])[H])(C([H])([H])[H])[N+]2(C([H])([H])[H])C([H])([H])[H])[C@]2([H])[C@@]1([H])C(=O)O[C@@]2([H])C([H])([H])[H]


 26 29  0  0  0  0  0  0  0  0999 V2000
  -87.9521   27.5852    3.2779 C   0  0  0  0  0  0  0  0  0  0  0  0
  -87.6450   27.3407    1.7733 C   0  0  0  0  0  0  0  0  0  0  0  0
  -86.5204   26.4985    1.7980 O   0  0  0  0  0  0  0  0  0  0  0  0
  -85.4683   27.3419    2.1488 C   0  0  0  0  0  0  0  0  0  0  0  0
  -84.3045   26.9518    2.3928 O   0  0  0  0  0  0  0  0  0  0  0  0
  -85.9682   28.7369    2.1777 C   0  0  0  0  0  0  0  0  0  0  0  0
  -85.0230   29.7671    1.8456 C   0  0  0  0  0  0  0  0  0  0  0  0
  -84.9698   30.4258    0.7385 C   0  0  0  0  0  0  0  0  0  0  0  0
  -83.9593   31.4785    0.4766 C   0  0  0  0  0  0  0  0  0  0  0  0
  -84.6195   32.5186   -0.4187 C   0  0  0  0  0  0  0  0  0  0  0  0
  -86.0929   32.6107   -0.1829 C   0  0  0  0  0  0  0  0  0  0  0  0
  -86.8644   31.3525   -0.3833 C   0  0  0  0  0  0  0  0  0  0  0  0
  -85.9224   30.1525   -0.3215 C   0  0  0  0  0  0  0  0  0  0  0  0
  -86.7670   28.8986   -0.1037 C   0  0  0  0  0  0  0  0  0  0  0  0
  -87.0405   28.3067   -1.2251 C   0  0  0  0  0  0  0  0  0  0  0  0
  -87.1720   28.5862    1.2082 C   0  0  0  0  0  0  0  0  0  0  0  0
  -87.8093   27.1010   -1.3911 C   0  0  0  0  0  0  0  0  0  0  0  0
  -89.3102   27.5447   -1.3898 C   0  0  0  0  0  0  0  0  0  0  0  0
  -89.7232   27.9252   -2.7846 C   0  0  0  0  0  0  0  0  0  0  0  0
  -90.5327   26.6949   -3.1965 C   0  0  0  0  0  0  0  0  0  0  0  0
  -91.2541   26.4119   -1.8876 C   0  0  0  0  0  0  0  0  0  0  0  0
  -92.2968   27.4937   -1.7159 C   0  0  0  0  0  0  0  0  0  0  0  0
  -91.9330   25.0809   -1.8743 C   0  0  0  0  0  0  0  0  0  0  0  0
  -90.1760   26.5210   -0.9280 N   0  0  0  0  0  0  0  0  0  0  0  0
  -90.8006   27.0061    0.3151 C   0  0  0  0  0  0  0  0  0  0  0  0
  -89.5736   25.2629   -0.6151 C   0  0  0  0  0  0  0  0  0  0  0  0
  1  2  1  0  0  0
  2  3  1  0  0  0
  3  4  1  0  0  0
  4  5  2  0  0  0
  4  6  1  0  0  0
  6  7  1  0  0  0
  7  8  2  0  0  0
  8  9  1  0  0  0
  9 10  1  0  0  0
 10 11  1  0  0  0
 11 12  1  0  0  0
 12 13  1  0  0  0
 13 14  1  0  0  0
 14 15  2  0  0  0
 15 17  1  0  0  0
 17 18  1  0  0  0
 18 19  1  0  0  0
 19 20  1  0  0  0
 20 21  1  0  0  0
 21 22  1  0  0  0
 21 23  1  0  0  0
 21 24  1  0  0  0
 24 25  1  0  0  0
 24 26  1  0  0  0
 14 16  1  0  0  0
 16  2  1  0  0  0
 16  6  1  0  0  0
 13  8  1  0  0  0
 24 18  1  0  0  0
M  CHG 1  24   1
M  END
> <minimizedAffinity>
-8.75427

> <CNNscore>
0.4857463539

> <CNNaffinity>
6.4928283691

> <CNN_VS>
3.1538677216

> <CNNaffinity_variance>
0.0510256700

$$$$
[H]C1=C2C([H])([H])C([H])([H])C([H])([H])C([H])([H])[C@]2([H])/C(=C(\[H])C([H])([H])C2([H])C([H])([H])C([H])([H])C(C([H])([H])[H])(C([H])([H])[H])[N+]2(C([H])([H])[H])C([H])([H])[H])[C@]2([H])[C@@]1([H])C(=O)O[C@@]2([H])C([H])([H])[H]


 26 29  0  0  0  0  0  0  0  0999 V2000
  -87.9414   28.0081    3.3297 C   0  0  0  0  0  0  0  0  0  0  0  0
  -87.7554   27.8027    1.7997 C   0  0  0  0  0  0  0  0  0  0  0  0
  -86.8741   26.7113    1.7173 O   0  0  0  0  0  0  0  0  0  0  0  0
  -85.6347   27.2447    2.0650 C   0  0  0  0  0  0  0  0  0  0  0  0
  -84.5962   26.5654    2.2264 O   0  0  0  0  0  0  0  0  0  0  0  0
  -85.7726   28.7140    2.2026 C   0  0  0  0  0  0  0  0  0  0  0  0
  -84.6135   29.5024    1.8860 C   0  0  0  0  0  0  0  0  0  0  0  0
  -84.4364   30.2044    0.8192 C   0  0  0  0  0  0  0  0  0  0  0  0
  -83.2063   30.9937    0.5707 C   0  0  0  0  0  0  0  0  0  0  0  0
  -83.6183   32.2242   -0.2263 C   0  0  0  0  0  0  0  0  0  0  0  0
  -85.0143   32.6571    0.0883 C   0  0  0  0  0  0  0  0  0  0  0  0
  -86.0795   31.6434   -0.1485 C   0  0  0  0  0  0  0  0  0  0  0  0
  -85.4623   30.2480   -0.2061 C   0  0  0  0  0  0  0  0  0  0  0  0
  -86.5831   29.2268   -0.0220 C   0  0  0  0  0  0  0  0  0  0  0  0
  -87.0323   28.8005   -1.1618 C   0  0  0  0  0  0  0  0  0  0  0  0
  -87.0082   28.9312    1.2875 C   0  0  0  0  0  0  0  0  0  0  0  0
  -88.0807   27.8345   -1.3612 C   0  0  0  0  0  0  0  0  0  0  0  0
  -89.0515   28.4649   -2.4146 C   0  0  0  0  0  0  0  0  0  0  0  0
  -89.6997   27.3720   -3.2183 C   0  0  0  0  0  0  0  0  0  0  0  0
  -91.0938   27.3341   -2.5910 C   0  0  0  0  0  0  0  0  0  0  0  0
  -91.3275   28.8242   -2.3941 C   0  0  0  0  0  0  0  0  0  0  0  0
  -91.5605   29.4189   -3.7648 C   0  0  0  0  0  0  0  0  0  0  0  0
  -92.5128   29.1176   -1.5329 C   0  0  0  0  0  0  0  0  0  0  0  0
  -90.0710   29.2446   -1.8116 N   0  0  0  0  0  0  0  0  0  0  0  0
  -89.8754   30.6361   -2.2547 C   0  0  0  0  0  0  0  0  0  0  0  0
  -90.0967   29.2738   -0.3825 C   0  0  0  0  0  0  0  0  0  0  0  0
  1  2  1  0  0  0
  2  3  1  0  0  0
  3  4  1  0  0  0
  4  5  2  0  0  0
  4  6  1  0  0  0
  6  7  1  0  0  0
  7  8  2  0  0  0
  8  9  1  0  0  0
  9 10  1  0  0  0
 10 11  1  0  0  0
 11 12  1  0  0  0
 12 13  1  0  0  0
 13 14  1  0  0  0
 14 15  2  0  0  0
 15 17  1  0  0  0
 17 18  1  0  0  0
 18 19  1  0  0  0
 19 20  1  0  0  0
 20 21  1  0  0  0
 21 22  1  0  0  0
 21 23  1  0  0  0
 21 24  1  0  0  0
 24 25  1  0  0  0
 24 26  1  0  0  0
 14 16  1  0  0  0
 16  2  1  0  0  0
 16  6  1  0  0  0
 13  8  1  0  0  0
 24 18  1  0  0  0
M  CHG 1  24   1
M  END
> <minimizedAffinity>
-8.20825

> <CNNscore>
0.4069639742

> <CNNaffinity>
6.4509878159

> <CNN_VS>
2.6253197193

> <CNNaffinity_variance>
0.0950234756

$$$$
[H]C1=C2C([H])([H])C([H])([H])C([H])([H])C([H])([H])[C@]2([H])/C(=C(\[H])C([H])([H])C2([H])C([H])([H])C([H])([H])C(C([H])([H])[H])(C([H])([H])[H])[N+]2(C([H])([H])[H])C([H])([H])[H])[C@]2([H])[C@@]1([H])C(=O)O[C@@]2([H])C([H])([H])[H]


 26 29  0  0  0  0  0  0  0  0999 V2000
  -85.4734   29.4542    3.9127 C   0  0  0  0  0  0  0  0  0  0  0  0
  -85.6705   28.9030    2.4722 C   0  0  0  0  0  0  0  0  0  0  0  0
  -84.4531   28.2581    2.1955 O   0  0  0  0  0  0  0  0  0  0  0  0
  -83.5590   29.3004    1.9597 C   0  0  0  0  0  0  0  0  0  0  0  0
  -82.3285   29.1478    1.7903 O   0  0  0  0  0  0  0  0  0  0  0  0
  -84.3117   30.5772    1.9476 C   0  0  0  0  0  0  0  0  0  0  0  0
  -83.7968   31.6207    1.1043 C   0  0  0  0  0  0  0  0  0  0  0  0
  -84.2842   31.9965   -0.0286 C   0  0  0  0  0  0  0  0  0  0  0  0
  -83.6902   33.0876   -0.8376 C   0  0  0  0  0  0  0  0  0  0  0  0
  -84.8360   33.7800   -1.5637 C   0  0  0  0  0  0  0  0  0  0  0  0
  -86.1131   33.7173   -0.7889 C   0  0  0  0  0  0  0  0  0  0  0  0
  -86.6073   32.3520   -0.4574 C   0  0  0  0  0  0  0  0  0  0  0  0
  -85.4637   31.3465   -0.5689 C   0  0  0  0  0  0  0  0  0  0  0  0
  -85.8779   30.0749    0.1690 C   0  0  0  0  0  0  0  0  0  0  0  0
  -86.3912   29.1997   -0.6394 C   0  0  0  0  0  0  0  0  0  0  0  0
  -85.7148   30.0312    1.5669 C   0  0  0  0  0  0  0  0  0  0  0  0
  -86.8823   27.8934   -0.2865 C   0  0  0  0  0  0  0  0  0  0  0  0
  -88.4413   28.0211   -0.2306 C   0  0  0  0  0  0  0  0  0  0  0  0
  -88.9098   28.9411   -1.3235 C   0  0  0  0  0  0  0  0  0  0  0  0
  -89.4574   27.9363   -2.3380 C   0  0  0  0  0  0  0  0  0  0  0  0
  -90.1194   26.9484   -1.3895 C   0  0  0  0  0  0  0  0  0  0  0  0
  -91.3563   27.6242   -0.8417 C   0  0  0  0  0  0  0  0  0  0  0  0
  -90.5225   25.6771   -2.0632 C   0  0  0  0  0  0  0  0  0  0  0  0
  -89.0918   26.7707   -0.3858 N   0  0  0  0  0  0  0  0  0  0  0  0
  -89.8098   26.4938    0.8706 C   0  0  0  0  0  0  0  0  0  0  0  0
  -88.2556   25.6378   -0.6331 C   0  0  0  0  0  0  0  0  0  0  0  0
  1  2  1  0  0  0
  2  3  1  0  0  0
  3  4  1  0  0  0
  4  5  2  0  0  0
  4  6  1  0  0  0
  6  7  1  0  0  0
  7  8  2  0  0  0
  8  9  1  0  0  0
  9 10  1  0  0  0
 10 11  1  0  0  0
 11 12  1  0  0  0
 12 13  1  0  0  0
 13 14  1  0  0  0
 14 15  2  0  0  0
 15 17  1  0  0  0
 17 18  1  0  0  0
 18 19  1  0  0  0
 19 20  1  0  0  0
 20 21  1  0  0  0
 21 22  1  0  0  0
 21 23  1  0  0  0
 21 24  1  0  0  0
 24 25  1  0  0  0
 24 26  1  0  0  0
 14 16  1  0  0  0
 16  2  1  0  0  0
 16  6  1  0  0  0
 13  8  1  0  0  0
 24 18  1  0  0  0
M  CHG 1  24   1
M  END
> <minimizedAffinity>
-8.36096

> <CNNscore>
0.3743579686

> <CNNaffinity>
6.5457367897

> <CNN_VS>
2.4504487514

> <CNNaffinity_variance>
0.0539421439

$$$$
[H]C1=C2C([H])([H])C([H])([H])C([H])([H])C([H])([H])[C@]2([H])/C(=C(\[H])C([H])([H])C2([H])C([H])([H])C([H])([H])C(C([H])([H])[H])(C([H])([H])[H])[N+]2(C([H])([H])[H])C([H])([H])[H])[C@]2([H])[C@@]1([H])C(=O)O[C@@]2([H])C([H])([H])[H]


 26 29  0  0  0  0  0  0  0  0999 V2000
  -84.9053   31.4721    2.6776 C   0  0  0  0  0  0  0  0  0  0  0  0
  -85.3282   30.4831    1.5547 C   0  0  0  0  0  0  0  0  0  0  0  0
  -84.1269   30.2230    0.8736 O   0  0  0  0  0  0  0  0  0  0  0  0
  -83.8953   31.3803    0.1331 C   0  0  0  0  0  0  0  0  0  0  0  0
  -82.8543   31.5975   -0.5266 O   0  0  0  0  0  0  0  0  0  0  0  0
  -85.0706   32.2731    0.2685 C   0  0  0  0  0  0  0  0  0  0  0  0
  -85.3648   33.1253   -0.8505 C   0  0  0  0  0  0  0  0  0  0  0  0
  -86.3181   32.9632   -1.7033 C   0  0  0  0  0  0  0  0  0  0  0  0
  -86.5542   33.8944   -2.8325 C   0  0  0  0  0  0  0  0  0  0  0  0
  -88.0561   33.9210   -3.0830 C   0  0  0  0  0  0  0  0  0  0  0  0
  -88.8397   33.6764   -1.8335 C   0  0  0  0  0  0  0  0  0  0  0  0
  -88.5664   32.3898   -1.1348 C   0  0  0  0  0  0  0  0  0  0  0  0
  -87.2190   31.8316   -1.5866 C   0  0  0  0  0  0  0  0  0  0  0  0
  -86.7798   30.7767   -0.5731 C   0  0  0  0  0  0  0  0  0  0  0  0
  -87.1169   29.5824   -0.9509 C   0  0  0  0  0  0  0  0  0  0  0  0
  -86.1490   31.2089    0.6093 C   0  0  0  0  0  0  0  0  0  0  0  0
  -86.8587   28.3560   -0.2427 C   0  0  0  0  0  0  0  0  0  0  0  0
  -88.1332   28.0836    0.6238 C   0  0  0  0  0  0  0  0  0  0  0  0
  -89.3483   28.6065   -0.0909 C   0  0  0  0  0  0  0  0  0  0  0  0
  -89.9569   27.3083   -0.6227 C   0  0  0  0  0  0  0  0  0  0  0  0
  -89.7040   26.3986    0.5699 C   0  0  0  0  0  0  0  0  0  0  0  0
  -90.6578   26.8278    1.6621 C   0  0  0  0  0  0  0  0  0  0  0  0
  -89.9419   24.9561    0.2611 C   0  0  0  0  0  0  0  0  0  0  0  0
  -88.3245   26.7029    0.8847 N   0  0  0  0  0  0  0  0  0  0  0  0
  -88.1997   26.5128    2.3404 C   0  0  0  0  0  0  0  0  0  0  0  0
  -87.3977   25.8000    0.2769 C   0  0  0  0  0  0  0  0  0  0  0  0
  1  2  1  0  0  0
  2  3  1  0  0  0
  3  4  1  0  0  0
  4  5  2  0  0  0
  4  6  1  0  0  0
  6  7  1  0  0  0
  7  8  2  0  0  0
  8  9  1  0  0  0
  9 10  1  0  0  0
 10 11  1  0  0  0
 11 12  1  0  0  0
 12 13  1  0  0  0
 13 14  1  0  0  0
 14 15  2  0  0  0
 15 17  1  0  0  0
 17 18  1  0  0  0
 18 19  1  0  0  0
 19 20  1  0  0  0
 20 21  1  0  0  0
 21 22  1  0  0  0
 21 23  1  0  0  0
 21 24  1  0  0  0
 24 25  1  0  0  0
 24 26  1  0  0  0
 14 16  1  0  0  0
 16  2  1  0  0  0
 16  6  1  0  0  0
 13  8  1  0  0  0
 24 18  1  0  0  0
M  CHG 1  24   1
M  END
> <minimizedAffinity>
-9.40932

> <CNNscore>
0.2732216418

> <CNNaffinity>
6.4125776291

> <CNN_VS>
1.7520549297

> <CNNaffinity_variance>
0.0202347897

$$$$
[H]C1=C2C([H])([H])C([H])([H])C([H])([H])C([H])([H])[C@]2([H])/C(=C(\[H])C([H])([H])C2([H])C([H])([H])C([H])([H])C(C([H])([H])[H])(C([H])([H])[H])[N+]2(C([H])([H])[H])C([H])([H])[H])[C@]2([H])[C@@]1([H])C(=O)O[C@@]2([H])C([H])([H])[H]


 26 29  0  0  0  0  0  0  0  0999 V2000
  -89.4419   28.7015    0.4162 C   0  0  0  0  0  0  0  0  0  0  0  0
  -89.0177   29.9860   -0.3504 C   0  0  0  0  0  0  0  0  0  0  0  0
  -88.7638   29.5249   -1.6533 O   0  0  0  0  0  0  0  0  0  0  0  0
  -87.5421   28.8629   -1.5505 C   0  0  0  0  0  0  0  0  0  0  0  0
  -87.0183   28.2039   -2.4766 O   0  0  0  0  0  0  0  0  0  0  0  0
  -86.9994   29.0778   -0.1881 C   0  0  0  0  0  0  0  0  0  0  0  0
  -85.5682   29.1001   -0.0608 C   0  0  0  0  0  0  0  0  0  0  0  0
  -84.8337   30.1454    0.1132 C   0  0  0  0  0  0  0  0  0  0  0  0
  -83.3579   30.0799    0.2372 C   0  0  0  0  0  0  0  0  0  0  0  0
  -82.9389   31.1983    1.1821 C   0  0  0  0  0  0  0  0  0  0  0  0
  -83.9953   31.5053    2.1944 C   0  0  0  0  0  0  0  0  0  0  0  0
  -85.3218   31.9082    1.6498 C   0  0  0  0  0  0  0  0  0  0  0  0
  -85.4414   31.4606    0.1949 C   0  0  0  0  0  0  0  0  0  0  0  0
  -86.9184   31.4990   -0.1921 C   0  0  0  0  0  0  0  0  0  0  0  0
  -87.2305   32.6159   -0.7735 C   0  0  0  0  0  0  0  0  0  0  0  0
  -87.7296   30.4034    0.1604 C   0  0  0  0  0  0  0  0  0  0  0  0
  -88.5290   32.9880   -1.2710 C   0  0  0  0  0  0  0  0  0  0  0  0
  -88.2674   33.9303   -2.4929 C   0  0  0  0  0  0  0  0  0  0  0  0
  -86.9688   33.5526   -3.1500 C   0  0  0  0  0  0  0  0  0  0  0  0
  -87.4720   32.8021   -4.3838 C   0  0  0  0  0  0  0  0  0  0  0  0
  -88.6619   33.6766   -4.7490 C   0  0  0  0  0  0  0  0  0  0  0  0
  -88.1057   34.9666   -5.3087 C   0  0  0  0  0  0  0  0  0  0  0  0
  -89.5509   33.0498   -5.7734 C   0  0  0  0  0  0  0  0  0  0  0  0
  -89.2997   33.8576   -3.4624 N   0  0  0  0  0  0  0  0  0  0  0  0
  -89.9377   35.1844   -3.5204 C   0  0  0  0  0  0  0  0  0  0  0  0
  -90.3460   32.9149   -3.2170 C   0  0  0  0  0  0  0  0  0  0  0  0
  1  2  1  0  0  0
  2  3  1  0  0  0
  3  4  1  0  0  0
  4  5  2  0  0  0
  4  6  1  0  0  0
  6  7  1  0  0  0
  7  8  2  0  0  0
  8  9  1  0  0  0
  9 10  1  0  0  0
 10 11  1  0  0  0
 11 12  1  0  0  0
 12 13  1  0  0  0
 13 14  1  0  0  0
 14 15  2  0  0  0
 15 17  1  0  0  0
 17 18  1  0  0  0
 18 19  1  0  0  0
 19 20  1  0  0  0
 20 21  1  0  0  0
 21 22  1  0  0  0
 21 23  1  0  0  0
 21 24  1  0  0  0
 24 25  1  0  0  0
 24 26  1  0  0  0
 14 16  1  0  0  0
 16  2  1  0  0  0
 16  6  1  0  0  0
 13  8  1  0  0  0
 24 18  1  0  0  0
M  CHG 1  24   1
M  END
> <minimizedAffinity>
-8.53315

> <CNNscore>
0.2453918159

> <CNNaffinity>
6.0565938950

> <CNN_VS>
1.4862385988

> <CNNaffinity_variance>
0.0685118958

$$$$
[H]C1=C2C([H])([H])C([H])([H])C([H])([H])C([H])([H])[C@]2([H])/C(=C(\[H])C([H])([H])C2([H])C([H])([H])C([H])([H])C(C([H])([H])[H])(C([H])([H])[H])[N+]2(C([H])([H])[H])C([H])([H])[H])[C@]2([H])[C@@]1([H])C(=O)O[C@@]2([H])C([H])([H])[H]


 26 29  0  0  0  0  0  0  0  0999 V2000
  -88.1134   30.4811   -3.6312 C   0  0  0  0  0  0  0  0  0  0  0  0
  -88.4650   29.7984   -2.2792 C   0  0  0  0  0  0  0  0  0  0  0  0
  -89.4400   30.6450   -1.7249 O   0  0  0  0  0  0  0  0  0  0  0  0
  -88.7201   31.7528   -1.2823 C   0  0  0  0  0  0  0  0  0  0  0  0
  -89.2417   32.7957   -0.8279 O   0  0  0  0  0  0  0  0  0  0  0  0
  -87.2735   31.4742   -1.4447 C   0  0  0  0  0  0  0  0  0  0  0  0
  -86.3872   32.0981   -0.5012 C   0  0  0  0  0  0  0  0  0  0  0  0
  -85.7932   31.5192    0.4859 C   0  0  0  0  0  0  0  0  0  0  0  0
  -84.8895   32.2389    1.4149 C   0  0  0  0  0  0  0  0  0  0  0  0
  -83.8178   31.2492    1.8521 C   0  0  0  0  0  0  0  0  0  0  0  0
  -83.5300   30.2289    0.7979 C   0  0  0  0  0  0  0  0  0  0  0  0
  -84.6891   29.4047    0.3557 C   0  0  0  0  0  0  0  0  0  0  0  0
  -85.9939   30.1031    0.7311 C   0  0  0  0  0  0  0  0  0  0  0  0
  -87.1199   29.4738   -0.0869 C   0  0  0  0  0  0  0  0  0  0  0  0
  -87.7247   28.5366    0.5754 C   0  0  0  0  0  0  0  0  0  0  0  0
  -87.3169   29.9223   -1.4070 C   0  0  0  0  0  0  0  0  0  0  0  0
  -88.8305   27.7392    0.1133 C   0  0  0  0  0  0  0  0  0  0  0  0
  -88.9565   26.5517    1.1251 C   0  0  0  0  0  0  0  0  0  0  0  0
  -87.8414   26.6277    2.1308 C   0  0  0  0  0  0  0  0  0  0  0  0
  -88.5824   27.1810    3.3488 C   0  0  0  0  0  0  0  0  0  0  0  0
  -89.8875   26.4091    3.2281 C   0  0  0  0  0  0  0  0  0  0  0  0
  -89.5882   24.9752    3.6038 C   0  0  0  0  0  0  0  0  0  0  0  0
  -90.9571   26.9314    4.1314 C   0  0  0  0  0  0  0  0  0  0  0  0
  -90.1917   26.5638    1.8215 N   0  0  0  0  0  0  0  0  0  0  0  0
  -90.9205   25.3422    1.4378 C   0  0  0  0  0  0  0  0  0  0  0  0
  -91.0691   27.6604    1.5543 C   0  0  0  0  0  0  0  0  0  0  0  0
  1  2  1  0  0  0
  2  3  1  0  0  0
  3  4  1  0  0  0
  4  5  2  0  0  0
  4  6  1  0  0  0
  6  7  1  0  0  0
  7  8  2  0  0  0
  8  9  1  0  0  0
  9 10  1  0  0  0
 10 11  1  0  0  0
 11 12  1  0  0  0
 12 13  1  0  0  0
 13 14  1  0  0  0
 14 15  2  0  0  0
 15 17  1  0  0  0
 17 18  1  0  0  0
 18 19  1  0  0  0
 19 20  1  0  0  0
 20 21  1  0  0  0
 21 22  1  0  0  0
 21 23  1  0  0  0
 21 24  1  0  0  0
 24 25  1  0  0  0
 24 26  1  0  0  0
 14 16  1  0  0  0
 16  2  1  0  0  0
 16  6  1  0  0  0
 13  8  1  0  0  0
 24 18  1  0  0  0
M  CHG 1  24   1
M  END
> <minimizedAffinity>
-9.19411

> <CNNscore>
0.1894385964

> <CNNaffinity>
6.1775093079

> <CNN_VS>
1.1702586412

> <CNNaffinity_variance>
0.0547349863

$$$$
[H]C1=C2C([H])([H])C([H])([H])C([H])([H])C([H])([H])[C@]2([H])/C(=C(\[H])C([H])([H])C2([H])C([H])([H])C([H])([H])C(C([H])([H])[H])(C([H])([H])[H])[N+]2(C([H])([H])[H])C([H])([H])[H])[C@]2([H])[C@@]1([H])C(=O)O[C@@]2([H])C([H])([H])[H]


 26 29  0  0  0  0  0  0  0  0999 V2000
  -82.7164   30.1038    1.2346 C   0  0  0  0  0  0  0  0  0  0  0  0
  -84.0135   30.7384    0.6579 C   0  0  0  0  0  0  0  0  0  0  0  0
  -84.4423   31.6015    1.6805 O   0  0  0  0  0  0  0  0  0  0  0  0
  -84.9721   30.7501    2.6478 C   0  0  0  0  0  0  0  0  0  0  0  0
  -85.3585   31.1227    3.7783 O   0  0  0  0  0  0  0  0  0  0  0  0
  -84.9913   29.3706    2.1062 C   0  0  0  0  0  0  0  0  0  0  0  0
  -86.0386   28.5074    2.5787 C   0  0  0  0  0  0  0  0  0  0  0  0
  -87.0917   28.1559    1.9232 C   0  0  0  0  0  0  0  0  0  0  0  0
  -88.1267   27.2562    2.4863 C   0  0  0  0  0  0  0  0  0  0  0  0
  -88.6937   26.4469    1.3276 C   0  0  0  0  0  0  0  0  0  0  0  0
  -87.6830   26.2245    0.2486 C   0  0  0  0  0  0  0  0  0  0  0  0
  -87.0990   27.4522   -0.3597 C   0  0  0  0  0  0  0  0  0  0  0  0
  -87.3091   28.6423    0.5734 C   0  0  0  0  0  0  0  0  0  0  0  0
  -86.3565   29.7556    0.1422 C   0  0  0  0  0  0  0  0  0  0  0  0
  -86.9375   30.5992   -0.6538 C   0  0  0  0  0  0  0  0  0  0  0  0
  -85.0223   29.7031    0.5895 C   0  0  0  0  0  0  0  0  0  0  0  0
  -86.3404   31.7675   -1.2459 C   0  0  0  0  0  0  0  0  0  0  0  0
  -87.5240   32.7417   -1.5621 C   0  0  0  0  0  0  0  0  0  0  0  0
  -86.9874   34.1279   -1.7880 C   0  0  0  0  0  0  0  0  0  0  0  0
  -87.0637   34.2270   -3.3121 C   0  0  0  0  0  0  0  0  0  0  0  0
  -88.3907   33.5222   -3.5493 C   0  0  0  0  0  0  0  0  0  0  0  0
  -89.4783   34.4563   -3.0684 C   0  0  0  0  0  0  0  0  0  0  0  0
  -88.6301   33.2038   -4.9895 C   0  0  0  0  0  0  0  0  0  0  0  0
  -88.2544   32.3493   -2.7124 N   0  0  0  0  0  0  0  0  0  0  0  0
  -89.6202   32.0184   -2.2698 C   0  0  0  0  0  0  0  0  0  0  0  0
  -87.7701   31.2066   -3.4220 C   0  0  0  0  0  0  0  0  0  0  0  0
  1  2  1  0  0  0
  2  3  1  0  0  0
  3  4  1  0  0  0
  4  5  2  0  0  0
  4  6  1  0  0  0
  6  7  1  0  0  0
  7  8  2  0  0  0
  8  9  1  0  0  0
  9 10  1  0  0  0
 10 11  1  0  0  0
 11 12  1  0  0  0
 12 13  1  0  0  0
 13 14  1  0  0  0
 14 15  2  0  0  0
 15 17  1  0  0  0
 17 18  1  0  0  0
 18 19  1  0  0  0
 19 20  1  0  0  0
 20 21  1  0  0  0
 21 22  1  0  0  0
 21 23  1  0  0  0
 21 24  1  0  0  0
 24 25  1  0  0  0
 24 26  1  0  0  0
 14 16  1  0  0  0
 16  2  1  0  0  0
 16  6  1  0  0  0
 13  8  1  0  0  0
 24 18  1  0  0  0
M  CHG 1  24   1
M  END
> <minimizedAffinity>
-9.30306

> <CNNscore>
0.1868431866

> <CNNaffinity>
6.2480063438

> <CNN_VS>
1.1673973799

> <CNNaffinity_variance>
0.1641633809

$$$$
[H]C1=C2C([H])([H])C([H])([H])C([H])([H])C([H])([H])[C@]2([H])/C(=C(\[H])C([H])([H])C2([H])C([H])([H])C([H])([H])C(C([H])([H])[H])(C([H])([H])[H])[N+]2(C([H])([H])[H])C([H])([H])[H])[C@]2([H])[C@@]1([H])C(=O)O[C@@]2([H])C([H])([H])[H]


 26 29  0  0  0  0  0  0  0  0999 V2000
  -89.8145   28.0712    1.6269 C   0  0  0  0  0  0  0  0  0  0  0  0
  -89.0940   28.4736    0.3090 C   0  0  0  0  0  0  0  0  0  0  0  0
  -88.7422   27.2403   -0.2654 O   0  0  0  0  0  0  0  0  0  0  0  0
  -87.6650   26.8002    0.5010 C   0  0  0  0  0  0  0  0  0  0  0  0
  -87.1311   25.6744    0.3841 O   0  0  0  0  0  0  0  0  0  0  0  0
  -87.2843   27.8766    1.4461 C   0  0  0  0  0  0  0  0  0  0  0  0
  -85.8978   27.9474    1.8174 C   0  0  0  0  0  0  0  0  0  0  0  0
  -85.0384   28.8118    1.3970 C   0  0  0  0  0  0  0  0  0  0  0  0
  -83.6217   28.8154    1.8336 C   0  0  0  0  0  0  0  0  0  0  0  0
  -83.1636   30.2676    1.8521 C   0  0  0  0  0  0  0  0  0  0  0  0
  -84.2855   31.2080    2.1556 C   0  0  0  0  0  0  0  0  0  0  0  0
  -85.4463   31.1592    1.2235 C   0  0  0  0  0  0  0  0  0  0  0  0
  -85.4372   29.8404    0.4543 C   0  0  0  0  0  0  0  0  0  0  0  0
  -86.8238   29.6372   -0.1530 C   0  0  0  0  0  0  0  0  0  0  0  0
  -86.8751   30.0608   -1.3781 C   0  0  0  0  0  0  0  0  0  0  0  0
  -87.8372   29.0980    0.6625 C   0  0  0  0  0  0  0  0  0  0  0  0
  -88.0197   30.0213   -2.2500 C   0  0  0  0  0  0  0  0  0  0  0  0
  -88.6532   31.4514   -2.1928 C   0  0  0  0  0  0  0  0  0  0  0  0
  -87.7575   32.3668   -1.4052 C   0  0  0  0  0  0  0  0  0  0  0  0
  -87.0997   33.1705   -2.5276 C   0  0  0  0  0  0  0  0  0  0  0  0
  -88.2954   33.3485   -3.4509 C   0  0  0  0  0  0  0  0  0  0  0  0
  -89.2221   34.3415   -2.7861 C   0  0  0  0  0  0  0  0  0  0  0  0
  -87.9161   33.8700   -4.7988 C   0  0  0  0  0  0  0  0  0  0  0  0
  -88.8447   32.0097   -3.4822 N   0  0  0  0  0  0  0  0  0  0  0  0
  -90.2956   32.1817   -3.6718 C   0  0  0  0  0  0  0  0  0  0  0  0
  -88.3793   31.2379   -4.5919 C   0  0  0  0  0  0  0  0  0  0  0  0
  1  2  1  0  0  0
  2  3  1  0  0  0
  3  4  1  0  0  0
  4  5  2  0  0  0
  4  6  1  0  0  0
  6  7  1  0  0  0
  7  8  2  0  0  0
  8  9  1  0  0  0
  9 10  1  0  0  0
 10 11  1  0  0  0
 11 12  1  0  0  0
 12 13  1  0  0  0
 13 14  1  0  0  0
 14 15  2  0  0  0
 15 17  1  0  0  0
 17 18  1  0  0  0
 18 19  1  0  0  0
 19 20  1  0  0  0
 20 21  1  0  0  0
 21 22  1  0  0  0
 21 23  1  0  0  0
 21 24  1  0  0  0
 24 25  1  0  0  0
 24 26  1  0  0  0
 14 16  1  0  0  0
 16  2  1  0  0  0
 16  6  1  0  0  0
 13  8  1  0  0  0
 24 18  1  0  0  0
M  CHG 1  24   1
M  END
> <minimizedAffinity>
-9.50946

> <CNNscore>
0.1822799295

> <CNNaffinity>
6.1025085449

> <CNN_VS>
1.1123647690

> <CNNaffinity_variance>
0.1948019564

$$$$
[H]C1=C2C([H])([H])C([H])([H])C([H])([H])C([H])([H])[C@]2([H])/C(=C(\[H])C([H])([H])C2([H])C([H])([H])C([H])([H])C(C([H])([H])[H])(C([H])([H])[H])[N+]2(C([H])([H])[H])C([H])([H])[H])[C@]2([H])[C@@]1([H])C(=O)O[C@@]2([H])C([H])([H])[H]


 26 29  0  0  0  0  0  0  0  0999 V2000
  -87.9175   30.9833   -4.2998 C   0  0  0  0  0  0  0  0  0  0  0  0
  -88.5547   30.4013   -3.0064 C   0  0  0  0  0  0  0  0  0  0  0  0
  -89.4229   31.4199   -2.5782 O   0  0  0  0  0  0  0  0  0  0  0  0
  -88.5767   32.3889   -2.0431 C   0  0  0  0  0  0  0  0  0  0  0  0
  -88.9547   33.5171   -1.6553 O   0  0  0  0  0  0  0  0  0  0  0  0
  -87.1954   31.8519   -2.0202 C   0  0  0  0  0  0  0  0  0  0  0  0
  -86.3376   32.3249   -0.9688 C   0  0  0  0  0  0  0  0  0  0  0  0
  -85.9875   31.6680    0.0840 C   0  0  0  0  0  0  0  0  0  0  0  0
  -85.0935   32.2318    1.1236 C   0  0  0  0  0  0  0  0  0  0  0  0
  -84.2822   31.0744    1.6906 C   0  0  0  0  0  0  0  0  0  0  0  0
  -84.0524   29.9987    0.6781 C   0  0  0  0  0  0  0  0  0  0  0  0
  -85.2759   29.3875    0.0883 C   0  0  0  0  0  0  0  0  0  0  0  0
  -86.4700   30.3160    0.2964 C   0  0  0  0  0  0  0  0  0  0  0  0
  -87.5785   29.8833   -0.6612 C   0  0  0  0  0  0  0  0  0  0  0  0
  -88.4214   29.0830   -0.0852 C   0  0  0  0  0  0  0  0  0  0  0  0
  -87.5228   30.3341   -1.9941 C   0  0  0  0  0  0  0  0  0  0  0  0
  -89.5855   28.4883   -0.6878 C   0  0  0  0  0  0  0  0  0  0  0  0
  -90.0382   27.3486    0.2848 C   0  0  0  0  0  0  0  0  0  0  0  0
  -91.5354   27.2172    0.2430 C   0  0  0  0  0  0  0  0  0  0  0  0
  -91.6957   25.9618   -0.6152 C   0  0  0  0  0  0  0  0  0  0  0  0
  -90.5456   25.1290   -0.0698 C   0  0  0  0  0  0  0  0  0  0  0  0
  -90.9471   24.6768    1.3163 C   0  0  0  0  0  0  0  0  0  0  0  0
  -90.2533   23.9246   -0.9045 C   0  0  0  0  0  0  0  0  0  0  0  0
  -89.4673   26.0943   -0.0494 N   0  0  0  0  0  0  0  0  0  0  0  0
  -88.6011   25.6962    1.0739 C   0  0  0  0  0  0  0  0  0  0  0  0
  -88.6535   26.0515   -1.2240 C   0  0  0  0  0  0  0  0  0  0  0  0
  1  2  1  0  0  0
  2  3  1  0  0  0
  3  4  1  0  0  0
  4  5  2  0  0  0
  4  6  1  0  0  0
  6  7  1  0  0  0
  7  8  2  0  0  0
  8  9  1  0  0  0
  9 10  1  0  0  0
 10 11  1  0  0  0
 11 12  1  0  0  0
 12 13  1  0  0  0
 13 14  1  0  0  0
 14 15  2  0  0  0
 15 17  1  0  0  0
 17 18  1  0  0  0
 18 19  1  0  0  0
 19 20  1  0  0  0
 20 21  1  0  0  0
 21 22  1  0  0  0
 21 23  1  0  0  0
 21 24  1  0  0  0
 24 25  1  0  0  0
 24 26  1  0  0  0
 14 16  1  0  0  0
 16  2  1  0  0  0
 16  6  1  0  0  0
 13  8  1  0  0  0
 24 18  1  0  0  0
M  CHG 1  24   1
M  END
> <minimizedAffinity>
-8.54611

> <CNNscore>
0.1746398956

> <CNNaffinity>
6.0403423309

> <CNN_VS>
1.0548847914

> <CNNaffinity_variance>
0.0895725638

$$$$
[H]c1c([H])c([H])c(C([H])([H])N2C([H])([H])C([H])([H])C([H])(C([H])([H])C([H])([H])N([H])C(=O)c3c([H])c([H])c([H])c([N+](=O)[O-])c3[H])C([H])([H])C2([H])[H])c([H])c1[H]


 28 30  0  0  0  0  0  0  0  0999 V2000
  -87.9340   32.3530   -1.2457 C   0  0  0  0  0  0  0  0  0  0  0  0
  -85.4505   33.1052   -0.1943 O   0  0  0  0  0  0  0  0  0  0  0  0
  -85.7853   31.8993   -0.0847 C   0  0  0  0  0  0  0  0  0  0  0  0
  -87.0170   31.4657   -0.5962 N   0  0  0  0  0  0  0  0  0  0  0  0
  -87.3083   30.4678   -0.5175 H   0  0  0  0  0  0  0  0  0  0  0  0
  -84.8290   31.0294    0.5879 C   0  0  0  0  0  0  0  0  0  0  0  0
  -83.5302   31.4343    0.7866 C   0  0  0  0  0  0  0  0  0  0  0  0
  -82.6113   30.5971    1.4334 C   0  0  0  0  0  0  0  0  0  0  0  0
  -83.0053   29.3570    1.8765 C   0  0  0  0  0  0  0  0  0  0  0  0
  -84.3065   28.9139    1.6946 C   0  0  0  0  0  0  0  0  0  0  0  0
  -85.1777   29.7823    1.0477 C   0  0  0  0  0  0  0  0  0  0  0  0
  -84.7423   27.6437    2.1384 N   0  0  0  0  0  0  0  0  0  0  0  0
  -84.0058   26.9774    2.8719 O   0  0  0  0  0  0  0  0  0  0  0  0
  -85.9560   27.1562    1.7664 O   0  0  0  0  0  0  0  0  0  0  0  0
  -88.1098   31.9506   -2.6804 C   0  0  0  0  0  0  0  0  0  0  0  0
  -88.1325   33.2367   -3.4936 C   0  0  0  0  0  0  0  0  0  0  0  0
  -87.3468   34.3265   -2.8127 C   0  0  0  0  0  0  0  0  0  0  0  0
  -87.2905   35.4970   -3.8003 C   0  0  0  0  0  0  0  0  0  0  0  0
  -88.5964   35.9587   -4.0991 N   0  0  0  0  0  0  0  0  0  0  0  0
  -89.6732   35.2149   -3.5429 C   0  0  0  0  0  0  0  0  0  0  0  0
  -89.5451   33.7236   -3.7134 C   0  0  0  0  0  0  0  0  0  0  0  0
  -88.7387   37.3462   -3.7499 C   0  0  0  0  0  0  0  0  0  0  0  0
  -89.7279   38.0846   -4.5362 C   0  0  0  0  0  0  0  0  0  0  0  0
  -89.5385   38.1107   -5.9112 C   0  0  0  0  0  0  0  0  0  0  0  0
  -90.4037   38.7626   -6.7644 C   0  0  0  0  0  0  0  0  0  0  0  0
  -91.4810   39.3990   -6.2001 C   0  0  0  0  0  0  0  0  0  0  0  0
  -91.6753   39.3781   -4.8420 C   0  0  0  0  0  0  0  0  0  0  0  0
  -90.8109   38.7283   -4.0038 C   0  0  0  0  0  0  0  0  0  0  0  0
  2  3  2  0  0  0
  3  4  1  0  0  0
  4  1  1  0  0  0
  1 15  1  0  0  0
 15 16  1  0  0  0
 16 17  1  0  0  0
 17 18  1  0  0  0
 18 19  1  0  0  0
 19 22  1  0  0  0
 22 23  1  0  0  0
 23 24  2  0  0  0
 24 25  1  0  0  0
 25 26  2  0  0  0
 26 27  1  0  0  0
 27 28  2  0  0  0
 19 20  1  0  0  0
 20 21  1  0  0  0
  3  6  1  0  0  0
  6  7  2  0  0  0
  7  8  1  0  0  0
  8  9  2  0  0  0
  9 10  1  0  0  0
 10 12  1  0  0  0
 12 13  2  0  0  0
 12 14  1  0  0  0
 10 11  2  0  0  0
 21 16  1  0  0  0
 11  6  1  0  0  0
 28 23  1  0  0  0
  4  5  1  0  0  0
M  CHG 1  12   1
M  CHG 1  14  -1
M  END
> <minimizedAffinity>
-7.49476

> <CNNscore>
0.4583187997

> <CNNaffinity>
5.8880009651

> <CNN_VS>
2.6985814571

> <CNNaffinity_variance>
0.2843074799

$$$$
[H]c1c([H])c([H])c(C([H])([H])N2C([H])([H])C([H])([H])C([H])(C([H])([H])C([H])([H])N([H])C(=O)c3c([H])c([H])c([H])c([N+](=O)[O-])c3[H])C([H])([H])C2([H])[H])c([H])c1[H]


 28 30  0  0  0  0  0  0  0  0999 V2000
  -83.9196   30.5851    1.4475 C   0  0  0  0  0  0  0  0  0  0  0  0
  -84.0333   32.8431   -0.2041 O   0  0  0  0  0  0  0  0  0  0  0  0
  -85.0734   32.1460   -0.1026 C   0  0  0  0  0  0  0  0  0  0  0  0
  -85.0748   31.0055    0.7135 N   0  0  0  0  0  0  0  0  0  0  0  0
  -85.9306   30.4184    0.8122 H   0  0  0  0  0  0  0  0  0  0  0  0
  -86.2255   32.6021   -0.8697 C   0  0  0  0  0  0  0  0  0  0  0  0
  -86.1395   33.7166   -1.6703 C   0  0  0  0  0  0  0  0  0  0  0  0
  -87.2479   34.1546   -2.4075 C   0  0  0  0  0  0  0  0  0  0  0  0
  -88.4364   33.4681   -2.3344 C   0  0  0  0  0  0  0  0  0  0  0  0
  -88.5615   32.3398   -1.5382 C   0  0  0  0  0  0  0  0  0  0  0  0
  -87.4331   31.9478   -0.8279 C   0  0  0  0  0  0  0  0  0  0  0  0
  -89.7706   31.6123   -1.4414 N   0  0  0  0  0  0  0  0  0  0  0  0
  -90.5973   31.6950   -2.3547 O   0  0  0  0  0  0  0  0  0  0  0  0
  -90.0260   30.8294   -0.3593 O   0  0  0  0  0  0  0  0  0  0  0  0
  -84.2597   29.4053    2.3098 C   0  0  0  0  0  0  0  0  0  0  0  0
  -85.2489   28.5601    1.5205 C   0  0  0  0  0  0  0  0  0  0  0  0
  -86.6560   29.0720    1.6843 C   0  0  0  0  0  0  0  0  0  0  0  0
  -87.5229   28.2650    0.7118 C   0  0  0  0  0  0  0  0  0  0  0  0
  -87.4720   26.8847    1.0282 N   0  0  0  0  0  0  0  0  0  0  0  0
  -86.5800   26.5067    2.0692 C   0  0  0  0  0  0  0  0  0  0  0  0
  -85.2063   27.1143    1.9548 C   0  0  0  0  0  0  0  0  0  0  0  0
  -88.7871   26.3785    1.3135 C   0  0  0  0  0  0  0  0  0  0  0  0
  -89.2435   26.5798    2.6894 C   0  0  0  0  0  0  0  0  0  0  0  0
  -89.2080   25.4731    3.5267 C   0  0  0  0  0  0  0  0  0  0  0  0
  -89.6009   25.5322    4.8471 C   0  0  0  0  0  0  0  0  0  0  0  0
  -90.0380   26.7451    5.3182 C   0  0  0  0  0  0  0  0  0  0  0  0
  -90.0763   27.8437    4.4972 C   0  0  0  0  0  0  0  0  0  0  0  0
  -89.6841   27.7747    3.1882 C   0  0  0  0  0  0  0  0  0  0  0  0
  2  3  2  0  0  0
  3  4  1  0  0  0
  4  1  1  0  0  0
  1 15  1  0  0  0
 15 16  1  0  0  0
 16 17  1  0  0  0
 17 18  1  0  0  0
 18 19  1  0  0  0
 19 22  1  0  0  0
 22 23  1  0  0  0
 23 24  2  0  0  0
 24 25  1  0  0  0
 25 26  2  0  0  0
 26 27  1  0  0  0
 27 28  2  0  0  0
 19 20  1  0  0  0
 20 21  1  0  0  0
  3  6  1  0  0  0
  6  7  2  0  0  0
  7  8  1  0  0  0
  8  9  2  0  0  0
  9 10  1  0  0  0
 10 12  1  0  0  0
 12 13  2  0  0  0
 12 14  1  0  0  0
 10 11  2  0  0  0
 21 16  1  0  0  0
 11  6  1  0  0  0
 28 23  1  0  0  0
  4  5  1  0  0  0
M  CHG 1  12   1
M  CHG 1  14  -1
M  END
> <minimizedAffinity>
-7.99054

> <CNNscore>
0.4434703588

> <CNNaffinity>
6.4855623245

> <CNN_VS>
2.8761546612

> <CNNaffinity_variance>
0.1417742521

$$$$
[H]c1c([H])c([H])c(C([H])([H])N2C([H])([H])C([H])([H])C([H])(C([H])([H])C([H])([H])N([H])C(=O)c3c([H])c([H])c([H])c([N+](=O)[O-])c3[H])C([H])([H])C2([H])[H])c([H])c1[H]


 28 30  0  0  0  0  0  0  0  0999 V2000
  -87.6842   32.7133   -1.4870 C   0  0  0  0  0  0  0  0  0  0  0  0
  -85.2770   33.3805   -0.2223 O   0  0  0  0  0  0  0  0  0  0  0  0
  -85.6218   32.1725   -0.2123 C   0  0  0  0  0  0  0  0  0  0  0  0
  -86.8166   31.7806   -0.8334 N   0  0  0  0  0  0  0  0  0  0  0  0
  -87.1153   30.7818   -0.8380 H   0  0  0  0  0  0  0  0  0  0  0  0
  -84.7165   31.2553    0.4681 C   0  0  0  0  0  0  0  0  0  0  0  0
  -83.3868   31.5680    0.6245 C   0  0  0  0  0  0  0  0  0  0  0  0
  -82.5170   30.6854    1.2788 C   0  0  0  0  0  0  0  0  0  0  0  0
  -82.9909   29.4931    1.7718 C   0  0  0  0  0  0  0  0  0  0  0  0
  -84.3254   29.1431    1.6335 C   0  0  0  0  0  0  0  0  0  0  0  0
  -85.1454   30.0532    0.9771 C   0  0  0  0  0  0  0  0  0  0  0  0
  -84.8432   27.9239    2.1293 N   0  0  0  0  0  0  0  0  0  0  0  0
  -86.0420   27.6722    1.9748 O   0  0  0  0  0  0  0  0  0  0  0  0
  -84.0368   27.0351    2.7687 O   0  0  0  0  0  0  0  0  0  0  0  0
  -87.3363   32.8055   -2.9436 C   0  0  0  0  0  0  0  0  0  0  0  0
  -88.4168   32.0446   -3.6981 C   0  0  0  0  0  0  0  0  0  0  0  0
  -89.7907   32.5422   -3.3327 C   0  0  0  0  0  0  0  0  0  0  0  0
  -90.7688   31.8368   -4.2783 C   0  0  0  0  0  0  0  0  0  0  0  0
  -90.7028   30.4320   -4.1046 N   0  0  0  0  0  0  0  0  0  0  0  0
  -89.7084   29.9513   -3.2089 C   0  0  0  0  0  0  0  0  0  0  0  0
  -88.3471   30.5631   -3.4133 C   0  0  0  0  0  0  0  0  0  0  0  0
  -91.9860   29.9042   -3.7278 C   0  0  0  0  0  0  0  0  0  0  0  0
  -92.4023   28.7067   -4.4589 C   0  0  0  0  0  0  0  0  0  0  0  0
  -92.8376   28.8923   -5.7640 C   0  0  0  0  0  0  0  0  0  0  0  0
  -93.2470   27.8456   -6.5627 C   0  0  0  0  0  0  0  0  0  0  0  0
  -93.2105   26.5872   -6.0158 C   0  0  0  0  0  0  0  0  0  0  0  0
  -92.7818   26.3951   -4.7266 C   0  0  0  0  0  0  0  0  0  0  0  0
  -92.3774   27.4406   -3.9421 C   0  0  0  0  0  0  0  0  0  0  0  0
  2  3  2  0  0  0
  3  4  1  0  0  0
  4  1  1  0  0  0
  1 15  1  0  0  0
 15 16  1  0  0  0
 16 17  1  0  0  0
 17 18  1  0  0  0
 18 19  1  0  0  0
 19 22  1  0  0  0
 22 23  1  0  0  0
 23 24  2  0  0  0
 24 25  1  0  0  0
 25 26  2  0  0  0
 26 27  1  0  0  0
 27 28  2  0  0  0
 19 20  1  0  0  0
 20 21  1  0  0  0
  3  6  1  0  0  0
  6  7  2  0  0  0
  7  8  1  0  0  0
  8  9  2  0  0  0
  9 10  1  0  0  0
 10 12  1  0  0  0
 12 13  2  0  0  0
 12 14  1  0  0  0
 10 11  2  0  0  0
 21 16  1  0  0  0
 11  6  1  0  0  0
 28 23  1  0  0  0
  4  5  1  0  0  0
M  CHG 1  12   1
M  CHG 1  14  -1
M  END
> <minimizedAffinity>
-8.16206

> <CNNscore>
0.4365623593

> <CNNaffinity>
5.9584350586

> <CNN_VS>
2.6012284756

> <CNNaffinity_variance>
0.3057819307

$$$$
[H]c1c([H])c([H])c(C([H])([H])N2C([H])([H])C([H])([H])C([H])(C([H])([H])C([H])([H])N([H])C(=O)c3c([H])c([H])c([H])c([N+](=O)[O-])c3[H])C([H])([H])C2([H])[H])c([H])c1[H]


 28 30  0  0  0  0  0  0  0  0999 V2000
  -84.2959   31.0963    1.0196 C   0  0  0  0  0  0  0  0  0  0  0  0
  -84.4452   33.2581   -0.7534 O   0  0  0  0  0  0  0  0  0  0  0  0
  -85.4957   32.5988   -0.5532 C   0  0  0  0  0  0  0  0  0  0  0  0
  -85.4799   31.5075    0.3275 N   0  0  0  0  0  0  0  0  0  0  0  0
  -86.3437   30.9524    0.5081 H   0  0  0  0  0  0  0  0  0  0  0  0
  -86.6776   33.0437   -1.2805 C   0  0  0  0  0  0  0  0  0  0  0  0
  -87.9330   32.6339   -0.8981 C   0  0  0  0  0  0  0  0  0  0  0  0
  -89.0690   33.0621   -1.5981 C   0  0  0  0  0  0  0  0  0  0  0  0
  -88.9344   33.9004   -2.6790 C   0  0  0  0  0  0  0  0  0  0  0  0
  -87.6850   34.3350   -3.0944 C   0  0  0  0  0  0  0  0  0  0  0  0
  -86.5916   33.8814   -2.3663 C   0  0  0  0  0  0  0  0  0  0  0  0
  -87.5136   35.1970   -4.2026 N   0  0  0  0  0  0  0  0  0  0  0  0
  -86.9170   36.2666   -4.0463 O   0  0  0  0  0  0  0  0  0  0  0  0
  -87.9967   34.8584   -5.4277 O   0  0  0  0  0  0  0  0  0  0  0  0
  -84.6339   30.0482    2.0386 C   0  0  0  0  0  0  0  0  0  0  0  0
  -85.3258   28.9191    1.2887 C   0  0  0  0  0  0  0  0  0  0  0  0
  -86.8076   29.1652    1.1784 C   0  0  0  0  0  0  0  0  0  0  0  0
  -87.3579   28.0699    0.2585 C   0  0  0  0  0  0  0  0  0  0  0  0
  -87.1220   26.7882    0.8151 N   0  0  0  0  0  0  0  0  0  0  0  0
  -86.3550   26.7496    2.0119 C   0  0  0  0  0  0  0  0  0  0  0  0
  -85.1054   27.5898    1.9706 C   0  0  0  0  0  0  0  0  0  0  0  0
  -88.3592   26.0830    1.0130 C   0  0  0  0  0  0  0  0  0  0  0  0
  -89.1339   26.5068    2.1801 C   0  0  0  0  0  0  0  0  0  0  0  0
  -89.0476   25.7056    3.3106 C   0  0  0  0  0  0  0  0  0  0  0  0
  -89.7199   25.9994    4.4781 C   0  0  0  0  0  0  0  0  0  0  0  0
  -90.4940   27.1328    4.4883 C   0  0  0  0  0  0  0  0  0  0  0  0
  -90.5848   27.9300    3.3753 C   0  0  0  0  0  0  0  0  0  0  0  0
  -89.9137   27.6297    2.2214 C   0  0  0  0  0  0  0  0  0  0  0  0
  2  3  2  0  0  0
  3  4  1  0  0  0
  4  1  1  0  0  0
  1 15  1  0  0  0
 15 16  1  0  0  0
 16 17  1  0  0  0
 17 18  1  0  0  0
 18 19  1  0  0  0
 19 22  1  0  0  0
 22 23  1  0  0  0
 23 24  2  0  0  0
 24 25  1  0  0  0
 25 26  2  0  0  0
 26 27  1  0  0  0
 27 28  2  0  0  0
 19 20  1  0  0  0
 20 21  1  0  0  0
  3  6  1  0  0  0
  6  7  2  0  0  0
  7  8  1  0  0  0
  8  9  2  0  0  0
  9 10  1  0  0  0
 10 12  1  0  0  0
 12 13  2  0  0  0
 12 14  1  0  0  0
 10 11  2  0  0  0
 21 16  1  0  0  0
 11  6  1  0  0  0
 28 23  1  0  0  0
  4  5  1  0  0  0
M  CHG 1  12   1
M  CHG 1  14  -1
M  END
> <minimizedAffinity>
-8.06761

> <CNNscore>
0.3898637891

> <CNNaffinity>
6.2211432457

> <CNN_VS>
2.4253985882

> <CNNaffinity_variance>
0.4059353471

$$$$
[H]c1c([H])c([H])c(C([H])([H])N2C([H])([H])C([H])([H])C([H])(C([H])([H])C([H])([H])N([H])C(=O)c3c([H])c([H])c([H])c([N+](=O)[O-])c3[H])C([H])([H])C2([H])[H])c([H])c1[H]


 28 30  0  0  0  0  0  0  0  0999 V2000
  -88.8375   31.0911   -0.6516 C   0  0  0  0  0  0  0  0  0  0  0  0
  -86.3510   32.3628   -0.4541 O   0  0  0  0  0  0  0  0  0  0  0  0
  -86.4523   31.2088    0.0321 C   0  0  0  0  0  0  0  0  0  0  0  0
  -87.6736   30.5233   -0.0413 N   0  0  0  0  0  0  0  0  0  0  0  0
  -87.7736   29.5635    0.3533 H   0  0  0  0  0  0  0  0  0  0  0  0
  -85.2485   30.6680    0.6503 C   0  0  0  0  0  0  0  0  0  0  0  0
  -84.0953   31.4140    0.7125 C   0  0  0  0  0  0  0  0  0  0  0  0
  -82.9381   30.8932    1.3070 C   0  0  0  0  0  0  0  0  0  0  0  0
  -82.9487   29.6244    1.8354 C   0  0  0  0  0  0  0  0  0  0  0  0
  -84.0927   28.8421    1.7916 C   0  0  0  0  0  0  0  0  0  0  0  0
  -85.2124   29.4055    1.1914 C   0  0  0  0  0  0  0  0  0  0  0  0
  -84.1352   27.5332    2.3258 N   0  0  0  0  0  0  0  0  0  0  0  0
  -85.1285   26.8301    2.1171 O   0  0  0  0  0  0  0  0  0  0  0  0
  -83.0990   27.0485    3.0608 O   0  0  0  0  0  0  0  0  0  0  0  0
  -89.0100   30.5439   -2.0380 C   0  0  0  0  0  0  0  0  0  0  0  0
  -89.1699   31.7423   -2.9622 C   0  0  0  0  0  0  0  0  0  0  0  0
  -87.9241   31.9731   -3.7767 C   0  0  0  0  0  0  0  0  0  0  0  0
  -88.2678   33.0751   -4.7847 C   0  0  0  0  0  0  0  0  0  0  0  0
  -88.6322   34.2681   -4.1124 N   0  0  0  0  0  0  0  0  0  0  0  0
  -88.7176   34.1945   -2.6948 C   0  0  0  0  0  0  0  0  0  0  0  0
  -89.4794   32.9993   -2.1844 C   0  0  0  0  0  0  0  0  0  0  0  0
  -87.7627   35.3501   -4.4868 C   0  0  0  0  0  0  0  0  0  0  0  0
  -88.2858   36.6889   -4.2117 C   0  0  0  0  0  0  0  0  0  0  0  0
  -89.3740   37.1013   -4.9687 C   0  0  0  0  0  0  0  0  0  0  0  0
  -89.9666   38.3350   -4.8007 C   0  0  0  0  0  0  0  0  0  0  0  0
  -89.4357   39.1608   -3.8414 C   0  0  0  0  0  0  0  0  0  0  0  0
  -88.3602   38.7610   -3.0891 C   0  0  0  0  0  0  0  0  0  0  0  0
  -87.7793   37.5346   -3.2635 C   0  0  0  0  0  0  0  0  0  0  0  0
  2  3  2  0  0  0
  3  4  1  0  0  0
  4  1  1  0  0  0
  1 15  1  0  0  0
 15 16  1  0  0  0
 16 17  1  0  0  0
 17 18  1  0  0  0
 18 19  1  0  0  0
 19 22  1  0  0  0
 22 23  1  0  0  0
 23 24  2  0  0  0
 24 25  1  0  0  0
 25 26  2  0  0  0
 26 27  1  0  0  0
 27 28  2  0  0  0
 19 20  1  0  0  0
 20 21  1  0  0  0
  3  6  1  0  0  0
  6  7  2  0  0  0
  7  8  1  0  0  0
  8  9  2  0  0  0
  9 10  1  0  0  0
 10 12  1  0  0  0
 12 13  2  0  0  0
 12 14  1  0  0  0
 10 11  2  0  0  0
 21 16  1  0  0  0
 11  6  1  0  0  0
 28 23  1  0  0  0
  4  5  1  0  0  0
M  CHG 1  12   1
M  CHG 1  14  -1
M  END
> <minimizedAffinity>
-8.13036

> <CNNscore>
0.3804440796

> <CNNaffinity>
6.0458598137

> <CNN_VS>
2.3001115322

> <CNNaffinity_variance>
0.2778909206

$$$$
[H]c1c([H])c([H])c(C([H])([H])N2C([H])([H])C([H])([H])C([H])(C([H])([H])C([H])([H])N([H])C(=O)c3c([H])c([H])c([H])c([N+](=O)[O-])c3[H])C([H])([H])C2([H])[H])c([H])c1[H]


 28 30  0  0  0  0  0  0  0  0999 V2000
  -88.4443   27.9519    0.1619 C   0  0  0  0  0  0  0  0  0  0  0  0
  -86.0492   27.7153    1.5926 O   0  0  0  0  0  0  0  0  0  0  0  0
  -86.1963   28.7343    0.8727 C   0  0  0  0  0  0  0  0  0  0  0  0
  -87.3775   28.9065    0.1365 N   0  0  0  0  0  0  0  0  0  0  0  0
  -87.5174   29.7482   -0.4625 H   0  0  0  0  0  0  0  0  0  0  0  0
  -85.0865   29.6788    0.8678 C   0  0  0  0  0  0  0  0  0  0  0  0
  -83.9229   29.3984    1.5444 C   0  0  0  0  0  0  0  0  0  0  0  0
  -82.8562   30.3072    1.5392 C   0  0  0  0  0  0  0  0  0  0  0  0
  -82.9671   31.4929    0.8530 C   0  0  0  0  0  0  0  0  0  0  0  0
  -84.1246   31.8107    0.1589 C   0  0  0  0  0  0  0  0  0  0  0  0
  -85.1521   30.8756    0.1959 C   0  0  0  0  0  0  0  0  0  0  0  0
  -84.2697   33.0224   -0.5560 N   0  0  0  0  0  0  0  0  0  0  0  0
  -83.3177   33.8067   -0.6102 O   0  0  0  0  0  0  0  0  0  0  0  0
  -85.4398   33.3262   -1.1786 O   0  0  0  0  0  0  0  0  0  0  0  0
  -88.2637   26.9496   -0.9399 C   0  0  0  0  0  0  0  0  0  0  0  0
  -89.6264   26.3160   -1.1795 C   0  0  0  0  0  0  0  0  0  0  0  0
  -90.0818   26.5225   -2.6003 C   0  0  0  0  0  0  0  0  0  0  0  0
  -91.3609   25.6949   -2.7662 C   0  0  0  0  0  0  0  0  0  0  0  0
  -92.3624   26.1420   -1.8690 N   0  0  0  0  0  0  0  0  0  0  0  0
  -91.9789   27.1530   -0.9455 C   0  0  0  0  0  0  0  0  0  0  0  0
  -90.6698   26.8871   -0.2490 C   0  0  0  0  0  0  0  0  0  0  0  0
  -93.5362   26.5635   -2.5844 C   0  0  0  0  0  0  0  0  0  0  0  0
  -93.3012   26.9866   -3.9657 C   0  0  0  0  0  0  0  0  0  0  0  0
  -93.5484   26.0464   -4.9567 C   0  0  0  0  0  0  0  0  0  0  0  0
  -93.3762   26.3220   -6.2968 C   0  0  0  0  0  0  0  0  0  0  0  0
  -92.9431   27.5817   -6.6278 C   0  0  0  0  0  0  0  0  0  0  0  0
  -92.6963   28.5167   -5.6544 C   0  0  0  0  0  0  0  0  0  0  0  0
  -92.8704   28.2333   -4.3272 C   0  0  0  0  0  0  0  0  0  0  0  0
  2  3  2  0  0  0
  3  4  1  0  0  0
  4  1  1  0  0  0
  1 15  1  0  0  0
 15 16  1  0  0  0
 16 17  1  0  0  0
 17 18  1  0  0  0
 18 19  1  0  0  0
 19 22  1  0  0  0
 22 23  1  0  0  0
 23 24  2  0  0  0
 24 25  1  0  0  0
 25 26  2  0  0  0
 26 27  1  0  0  0
 27 28  2  0  0  0
 19 20  1  0  0  0
 20 21  1  0  0  0
  3  6  1  0  0  0
  6  7  2  0  0  0
  7  8  1  0  0  0
  8  9  2  0  0  0
  9 10  1  0  0  0
 10 12  1  0  0  0
 12 13  2  0  0  0
 12 14  1  0  0  0
 10 11  2  0  0  0
 21 16  1  0  0  0
 11  6  1  0  0  0
 28 23  1  0  0  0
  4  5  1  0  0  0
M  CHG 1  12   1
M  CHG 1  14  -1
M  END
> <minimizedAffinity>
-7.54148

> <CNNscore>
0.3644438684

> <CNNaffinity>
5.9384469986

> <CNN_VS>
2.1642305851

> <CNNaffinity_variance>
0.0977728516

$$$$
[H]c1c([H])c([H])c(C([H])([H])N2C([H])([H])C([H])([H])C([H])(C([H])([H])C([H])([H])N([H])C(=O)c3c([H])c([H])c([H])c([N+](=O)[O-])c3[H])C([H])([H])C2([H])[H])c([H])c1[H]


 28 30  0  0  0  0  0  0  0  0999 V2000
  -88.8491   30.4092   -0.4726 C   0  0  0  0  0  0  0  0  0  0  0  0
  -86.6266   32.0860   -0.1765 O   0  0  0  0  0  0  0  0  0  0  0  0
  -86.5033   30.8902    0.1882 C   0  0  0  0  0  0  0  0  0  0  0  0
  -87.5832   30.0046    0.0599 N   0  0  0  0  0  0  0  0  0  0  0  0
  -87.4965   29.0081    0.3537 H   0  0  0  0  0  0  0  0  0  0  0  0
  -85.2029   30.5185    0.7308 C   0  0  0  0  0  0  0  0  0  0  0  0
  -84.1442   31.3943    0.6795 C   0  0  0  0  0  0  0  0  0  0  0  0
  -82.8941   31.0360    1.2014 C   0  0  0  0  0  0  0  0  0  0  0  0
  -82.7169   29.7981    1.7719 C   0  0  0  0  0  0  0  0  0  0  0  0
  -83.7607   28.8882    1.8421 C   0  0  0  0  0  0  0  0  0  0  0  0
  -84.9793   29.2928    1.3102 C   0  0  0  0  0  0  0  0  0  0  0  0
  -83.6101   27.6071    2.4222 N   0  0  0  0  0  0  0  0  0  0  0  0
  -84.6029   26.8845    2.5513 O   0  0  0  0  0  0  0  0  0  0  0  0
  -82.3903   27.1699    2.8346 O   0  0  0  0  0  0  0  0  0  0  0  0
  -89.0344   29.8388   -1.8479 C   0  0  0  0  0  0  0  0  0  0  0  0
  -89.0086   31.0144   -2.8138 C   0  0  0  0  0  0  0  0  0  0  0  0
  -89.6087   32.2468   -2.1894 C   0  0  0  0  0  0  0  0  0  0  0  0
  -89.3622   33.3925   -3.1769 C   0  0  0  0  0  0  0  0  0  0  0  0
  -89.9930   33.1243   -4.4171 N   0  0  0  0  0  0  0  0  0  0  0  0
  -90.6139   31.8518   -4.5491 C   0  0  0  0  0  0  0  0  0  0  0  0
  -89.7625   30.6994   -4.0839 C   0  0  0  0  0  0  0  0  0  0  0  0
  -90.9387   34.1575   -4.7417 C   0  0  0  0  0  0  0  0  0  0  0  0
  -90.7640   34.7650   -6.0617 C   0  0  0  0  0  0  0  0  0  0  0  0
  -91.5466   34.2582   -7.0902 C   0  0  0  0  0  0  0  0  0  0  0  0
  -91.4850   34.7495   -8.3771 C   0  0  0  0  0  0  0  0  0  0  0  0
  -90.6067   35.7772   -8.6152 C   0  0  0  0  0  0  0  0  0  0  0  0
  -89.8294   36.2836   -7.6042 C   0  0  0  0  0  0  0  0  0  0  0  0
  -89.8981   35.7891   -6.3304 C   0  0  0  0  0  0  0  0  0  0  0  0
  2  3  2  0  0  0
  3  4  1  0  0  0
  4  1  1  0  0  0
  1 15  1  0  0  0
 15 16  1  0  0  0
 16 17  1  0  0  0
 17 18  1  0  0  0
 18 19  1  0  0  0
 19 22  1  0  0  0
 22 23  1  0  0  0
 23 24  2  0  0  0
 24 25  1  0  0  0
 25 26  2  0  0  0
 26 27  1  0  0  0
 27 28  2  0  0  0
 19 20  1  0  0  0
 20 21  1  0  0  0
  3  6  1  0  0  0
  6  7  2  0  0  0
  7  8  1  0  0  0
  8  9  2  0  0  0
  9 10  1  0  0  0
 10 12  1  0  0  0
 12 13  2  0  0  0
 12 14  1  0  0  0
 10 11  2  0  0  0
 21 16  1  0  0  0
 11  6  1  0  0  0
 28 23  1  0  0  0
  4  5  1  0  0  0
M  CHG 1  12   1
M  CHG 1  14  -1
M  END
> <minimizedAffinity>
-7.68695

> <CNNscore>
0.3347594440

> <CNNaffinity>
5.7116255760

> <CNN_VS>
1.9120205641

> <CNNaffinity_variance>
0.1938937902

$$$$
[H]c1c([H])c([H])c(C([H])([H])N2C([H])([H])C([H])([H])C([H])(C([H])([H])C([H])([H])N([H])C(=O)c3c([H])c([H])c([H])c([N+](=O)[O-])c3[H])C([H])([H])C2([H])[H])c([H])c1[H]


 28 30  0  0  0  0  0  0  0  0999 V2000
  -88.0298   32.6281   -0.9435 C   0  0  0  0  0  0  0  0  0  0  0  0
  -85.3985   33.3006   -0.2630 O   0  0  0  0  0  0  0  0  0  0  0  0
  -85.7743   32.1243   -0.0326 C   0  0  0  0  0  0  0  0  0  0  0  0
  -87.0810   31.7310   -0.3561 N   0  0  0  0  0  0  0  0  0  0  0  0
  -87.4077   30.7576   -0.1754 H   0  0  0  0  0  0  0  0  0  0  0  0
  -84.7828   31.2436    0.5717 C   0  0  0  0  0  0  0  0  0  0  0  0
  -83.4601   31.6135    0.6341 C   0  0  0  0  0  0  0  0  0  0  0  0
  -82.5074   30.7660    1.2152 C   0  0  0  0  0  0  0  0  0  0  0  0
  -82.8917   29.5510    1.7301 C   0  0  0  0  0  0  0  0  0  0  0  0
  -84.2163   29.1434    1.6856 C   0  0  0  0  0  0  0  0  0  0  0  0
  -85.1208   30.0205    1.0990 C   0  0  0  0  0  0  0  0  0  0  0  0
  -84.6431   27.8995    2.2061 N   0  0  0  0  0  0  0  0  0  0  0  0
  -85.8298   27.5768    2.0969 O   0  0  0  0  0  0  0  0  0  0  0  0
  -83.7631   27.0642    2.8202 O   0  0  0  0  0  0  0  0  0  0  0  0
  -89.4253   32.1391   -0.6893 C   0  0  0  0  0  0  0  0  0  0  0  0
  -89.4380   30.6580   -1.0385 C   0  0  0  0  0  0  0  0  0  0  0  0
  -89.6543   30.4473   -2.5142 C   0  0  0  0  0  0  0  0  0  0  0  0
  -89.4662   28.9474   -2.7663 C   0  0  0  0  0  0  0  0  0  0  0  0
  -90.4143   28.1964   -2.0279 N   0  0  0  0  0  0  0  0  0  0  0  0
  -91.2523   28.9299   -1.1437 C   0  0  0  0  0  0  0  0  0  0  0  0
  -90.5187   29.9236   -0.2813 C   0  0  0  0  0  0  0  0  0  0  0  0
  -91.2240   27.3948   -2.9048 C   0  0  0  0  0  0  0  0  0  0  0  0
  -91.1868   25.9560   -2.6397 C   0  0  0  0  0  0  0  0  0  0  0  0
  -90.0193   25.4546   -2.0804 C   0  0  0  0  0  0  0  0  0  0  0  0
  -89.8606   24.1198   -1.7731 C   0  0  0  0  0  0  0  0  0  0  0  0
  -90.9152   23.2839   -2.0434 C   0  0  0  0  0  0  0  0  0  0  0  0
  -92.0725   23.7713   -2.5962 C   0  0  0  0  0  0  0  0  0  0  0  0
  -92.2201   25.0978   -2.8975 C   0  0  0  0  0  0  0  0  0  0  0  0
  2  3  2  0  0  0
  3  4  1  0  0  0
  4  1  1  0  0  0
  1 15  1  0  0  0
 15 16  1  0  0  0
 16 17  1  0  0  0
 17 18  1  0  0  0
 18 19  1  0  0  0
 19 22  1  0  0  0
 22 23  1  0  0  0
 23 24  2  0  0  0
 24 25  1  0  0  0
 25 26  2  0  0  0
 26 27  1  0  0  0
 27 28  2  0  0  0
 19 20  1  0  0  0
 20 21  1  0  0  0
  3  6  1  0  0  0
  6  7  2  0  0  0
  7  8  1  0  0  0
  8  9  2  0  0  0
  9 10  1  0  0  0
 10 12  1  0  0  0
 12 13  2  0  0  0
 12 14  1  0  0  0
 10 11  2  0  0  0
 21 16  1  0  0  0
 11  6  1  0  0  0
 28 23  1  0  0  0
  4  5  1  0  0  0
M  CHG 1  12   1
M  CHG 1  14  -1
M  END
> <minimizedAffinity>
-8.30543

> <CNNscore>
0.3151489496

> <CNNaffinity>
5.8552122116

> <CNN_VS>
1.8452639580

> <CNNaffinity_variance>
0.1354887635

$$$$
[H]c1c([H])c([H])c(C([H])([H])N2C([H])([H])C([H])([H])C([H])(C([H])([H])C([H])([H])N([H])C(=O)c3c([H])c([H])c([H])c([N+](=O)[O-])c3[H])C([H])([H])C2([H])[H])c([H])c1[H]


 28 30  0  0  0  0  0  0  0  0999 V2000
  -84.3389   27.6465    2.1106 C   0  0  0  0  0  0  0  0  0  0  0  0
  -86.5144   26.5637    0.7200 O   0  0  0  0  0  0  0  0  0  0  0  0
  -86.7654   27.3115    1.6977 C   0  0  0  0  0  0  0  0  0  0  0  0
  -85.7145   27.8842    2.4287 N   0  0  0  0  0  0  0  0  0  0  0  0
  -85.9053   28.5104    3.2401 H   0  0  0  0  0  0  0  0  0  0  0  0
  -88.1764   27.5238    1.9941 C   0  0  0  0  0  0  0  0  0  0  0  0
  -89.0043   28.1243    1.0752 C   0  0  0  0  0  0  0  0  0  0  0  0
  -90.3610   28.3280    1.3610 C   0  0  0  0  0  0  0  0  0  0  0  0
  -90.8763   27.9261    2.5702 C   0  0  0  0  0  0  0  0  0  0  0  0
  -90.0726   27.3169    3.5219 C   0  0  0  0  0  0  0  0  0  0  0  0
  -88.7352   27.1384    3.1888 C   0  0  0  0  0  0  0  0  0  0  0  0
  -90.5726   26.8927    4.7750 N   0  0  0  0  0  0  0  0  0  0  0  0
  -91.3931   25.9709    4.8147 O   0  0  0  0  0  0  0  0  0  0  0  0
  -90.1593   27.4876    5.9258 O   0  0  0  0  0  0  0  0  0  0  0  0
  -83.5616   28.9266    2.2014 C   0  0  0  0  0  0  0  0  0  0  0  0
  -84.4744   30.0279    1.6822 C   0  0  0  0  0  0  0  0  0  0  0  0
  -84.7069   29.8904    0.2004 C   0  0  0  0  0  0  0  0  0  0  0  0
  -85.7713   30.9303   -0.1660 C   0  0  0  0  0  0  0  0  0  0  0  0
  -85.3121   32.2377    0.1308 N   0  0  0  0  0  0  0  0  0  0  0  0
  -84.0542   32.3326    0.7871 C   0  0  0  0  0  0  0  0  0  0  0  0
  -83.8968   31.3960    1.9565 C   0  0  0  0  0  0  0  0  0  0  0  0
  -85.3009   33.0546   -1.0522 C   0  0  0  0  0  0  0  0  0  0  0  0
  -86.6205   33.3627   -1.6050 C   0  0  0  0  0  0  0  0  0  0  0  0
  -87.7095   32.7536   -0.9963 C   0  0  0  0  0  0  0  0  0  0  0  0
  -89.0058   32.9681   -1.4146 C   0  0  0  0  0  0  0  0  0  0  0  0
  -89.1903   33.8206   -2.4745 C   0  0  0  0  0  0  0  0  0  0  0  0
  -88.1194   34.4265   -3.0817 C   0  0  0  0  0  0  0  0  0  0  0  0
  -86.8368   34.2071   -2.6590 C   0  0  0  0  0  0  0  0  0  0  0  0
  2  3  2  0  0  0
  3  4  1  0  0  0
  4  1  1  0  0  0
  1 15  1  0  0  0
 15 16  1  0  0  0
 16 17  1  0  0  0
 17 18  1  0  0  0
 18 19  1  0  0  0
 19 22  1  0  0  0
 22 23  1  0  0  0
 23 24  2  0  0  0
 24 25  1  0  0  0
 25 26  2  0  0  0
 26 27  1  0  0  0
 27 28  2  0  0  0
 19 20  1  0  0  0
 20 21  1  0  0  0
  3  6  1  0  0  0
  6  7  2  0  0  0
  7  8  1  0  0  0
  8  9  2  0  0  0
  9 10  1  0  0  0
 10 12  1  0  0  0
 12 13  2  0  0  0
 12 14  1  0  0  0
 10 11  2  0  0  0
 21 16  1  0  0  0
 11  6  1  0  0  0
 28 23  1  0  0  0
  4  5  1  0  0  0
M  CHG 1  12   1
M  CHG 1  14  -1
M  END
> <minimizedAffinity>
-8.85859

> <CNNscore>
0.3131492734

> <CNNaffinity>
6.2114229202

> <CNN_VS>
1.9451025724

> <CNNaffinity_variance>
0.2138360739

$$$$
[H]OC(=O)c1c([H])c([H])c(OC2([H])C([H])([H])SC2([H])[H])c([H])c1[H]


 15 16  0  0  0  0  0  0  0  0999 V2000
  -84.0298   29.0514    1.8664 C   0  0  0  0  0  0  0  0  0  0  0  0
  -85.3606   29.3262    1.5855 C   0  0  0  0  0  0  0  0  0  0  0  0
  -85.7088   30.5753    1.0839 C   0  0  0  0  0  0  0  0  0  0  0  0
  -84.7797   31.5626    0.8513 C   0  0  0  0  0  0  0  0  0  0  0  0
  -83.4515   31.2756    1.1363 C   0  0  0  0  0  0  0  0  0  0  0  0
  -83.0798   30.0294    1.6401 C   0  0  0  0  0  0  0  0  0  0  0  0
  -84.5505   26.8592    2.5614 O   0  0  0  0  0  0  0  0  0  0  0  0
  -83.6644   27.7346    2.3950 C   0  0  0  0  0  0  0  0  0  0  0  0
  -82.3455   27.4571    2.7098 O   0  0  0  0  0  0  0  0  0  0  0  0
  -82.0602   27.5290    3.6873 H   0  0  0  0  0  0  0  0  0  0  0  0
  -85.1002   32.7547    0.3742 O   0  0  0  0  0  0  0  0  0  0  0  0
  -85.8755   33.3473   -0.5251 C   0  0  0  0  0  0  0  0  0  0  0  0
  -85.4639   33.3026   -2.0037 C   0  0  0  0  0  0  0  0  0  0  0  0
  -87.1079   34.0170   -2.3268 S   0  0  0  0  0  0  0  0  0  0  0  0
  -87.1935   32.8018   -0.9569 C   0  0  0  0  0  0  0  0  0  0  0  0
  7  8  2  0  0  0
  8  9  1  0  0  0
  8  1  1  0  0  0
  1  2  2  0  0  0
  2  3  1  0  0  0
  3  4  2  0  0  0
  4 11  1  0  0  0
 11 12  1  0  0  0
 12 13  1  0  0  0
 13 14  1  0  0  0
 14 15  1  0  0  0
  4  5  1  0  0  0
  5  6  2  0  0  0
  6  1  1  0  0  0
 15 12  1  0  0  0
  9 10  1  0  0  0
M  END
> <minimizedAffinity>
-6.46683

> <CNNscore>
0.8217321038

> <CNNaffinity>
4.5838537216

> <CNN_VS>
3.7666997910

> <CNNaffinity_variance>
0.3048208356

$$$$
[H]OC(=O)c1c([H])c([H])c(OC2([H])C([H])([H])SC2([H])[H])c([H])c1[H]


 15 16  0  0  0  0  0  0  0  0999 V2000
  -83.8308   29.2534    1.8655 C   0  0  0  0  0  0  0  0  0  0  0  0
  -82.9079   30.1975    1.4387 C   0  0  0  0  0  0  0  0  0  0  0  0
  -83.3578   31.4083    0.9240 C   0  0  0  0  0  0  0  0  0  0  0  0
  -84.6947   31.7143    0.8182 C   0  0  0  0  0  0  0  0  0  0  0  0
  -85.6084   30.7616    1.2486 C   0  0  0  0  0  0  0  0  0  0  0  0
  -85.1793   29.5406    1.7682 C   0  0  0  0  0  0  0  0  0  0  0  0
  -82.1272   27.8023    2.6081 O   0  0  0  0  0  0  0  0  0  0  0  0
  -83.3553   27.9781    2.4077 C   0  0  0  0  0  0  0  0  0  0  0  0
  -84.2582   26.9700    2.6980 O   0  0  0  0  0  0  0  0  0  0  0  0
  -84.3783   26.2218    2.0140 H   0  0  0  0  0  0  0  0  0  0  0  0
  -85.1336   32.8634    0.3300 O   0  0  0  0  0  0  0  0  0  0  0  0
  -85.9807   33.3665   -0.5591 C   0  0  0  0  0  0  0  0  0  0  0  0
  -85.5900   33.3560   -2.0440 C   0  0  0  0  0  0  0  0  0  0  0  0
  -87.3046   33.8931   -2.3434 S   0  0  0  0  0  0  0  0  0  0  0  0
  -87.2412   32.6840   -0.9670 C   0  0  0  0  0  0  0  0  0  0  0  0
  7  8  2  0  0  0
  8  9  1  0  0  0
  8  1  1  0  0  0
  1  2  2  0  0  0
  2  3  1  0  0  0
  3  4  2  0  0  0
  4 11  1  0  0  0
 11 12  1  0  0  0
 12 13  1  0  0  0
 13 14  1  0  0  0
 14 15  1  0  0  0
  4  5  1  0  0  0
  5  6  2  0  0  0
  6  1  1  0  0  0
 15 12  1  0  0  0
  9 10  1  0  0  0
M  END
> <minimizedAffinity>
-6.38814

> <CNNscore>
0.7561237812

> <CNNaffinity>
4.5278711319

> <CNN_VS>
3.4236309528

> <CNNaffinity_variance>
0.2897999883

$$$$
[H]OC(=O)c1c([H])c([H])c(OC2([H])C([H])([H])SC2([H])[H])c([H])c1[H]


 15 16  0  0  0  0  0  0  0  0999 V2000
  -84.3160   29.1833    1.6459 C   0  0  0  0  0  0  0  0  0  0  0  0
  -83.8965   30.5037    1.7227 C   0  0  0  0  0  0  0  0  0  0  0  0
  -84.6379   31.4938    1.0877 C   0  0  0  0  0  0  0  0  0  0  0  0
  -85.7833   31.2176    0.3779 C   0  0  0  0  0  0  0  0  0  0  0  0
  -86.1928   29.8928    0.3083 C   0  0  0  0  0  0  0  0  0  0  0  0
  -85.4644   28.8836    0.9376 C   0  0  0  0  0  0  0  0  0  0  0  0
  -84.1085   27.1156    2.7601 O   0  0  0  0  0  0  0  0  0  0  0  0
  -83.5338   28.1410    2.3155 C   0  0  0  0  0  0  0  0  0  0  0  0
  -82.1648   28.2870    2.4574 O   0  0  0  0  0  0  0  0  0  0  0  0
  -81.8085   28.6246    3.3525 H   0  0  0  0  0  0  0  0  0  0  0  0
  -86.4962   32.1521   -0.2301 O   0  0  0  0  0  0  0  0  0  0  0  0
  -87.4038   32.3204   -1.1837 C   0  0  0  0  0  0  0  0  0  0  0  0
  -88.8636   32.5748   -0.7813 C   0  0  0  0  0  0  0  0  0  0  0  0
  -89.1333   32.9167   -2.5499 S   0  0  0  0  0  0  0  0  0  0  0  0
  -87.5002   33.5541   -2.0141 C   0  0  0  0  0  0  0  0  0  0  0  0
  7  8  2  0  0  0
  8  9  1  0  0  0
  8  1  1  0  0  0
  1  2  2  0  0  0
  2  3  1  0  0  0
  3  4  2  0  0  0
  4 11  1  0  0  0
 11 12  1  0  0  0
 12 13  1  0  0  0
 13 14  1  0  0  0
 14 15  1  0  0  0
  4  5  1  0  0  0
  5  6  2  0  0  0
  6  1  1  0  0  0
 15 12  1  0  0  0
  9 10  1  0  0  0
M  END
> <minimizedAffinity>
-6.02767

> <CNNscore>
0.5333372951

> <CNNaffinity>
4.3549089432

> <CNN_VS>
2.3226354122

> <CNNaffinity_variance>
0.2522210479

$$$$
[H]OC(=O)c1c([H])c([H])c(OC2([H])C([H])([H])SC2([H])[H])c([H])c1[H]


 15 16  0  0  0  0  0  0  0  0999 V2000
  -93.9581   28.6118   -5.9718 C   0  0  0  0  0  0  0  0  0  0  0  0
  -94.9512   29.1308   -6.7902 C   0  0  0  0  0  0  0  0  0  0  0  0
  -94.9671   30.4938   -7.0644 C   0  0  0  0  0  0  0  0  0  0  0  0
  -94.0295   31.3606   -6.5530 C   0  0  0  0  0  0  0  0  0  0  0  0
  -93.0410   30.8294   -5.7355 C   0  0  0  0  0  0  0  0  0  0  0  0
  -93.0059   29.4653   -5.4473 C   0  0  0  0  0  0  0  0  0  0  0  0
  -93.4759   26.3723   -6.5303 O   0  0  0  0  0  0  0  0  0  0  0  0
  -93.9426   27.1753   -5.6838 C   0  0  0  0  0  0  0  0  0  0  0  0
  -94.4414   26.7053   -4.4813 O   0  0  0  0  0  0  0  0  0  0  0  0
  -95.3911   26.3311   -4.4692 H   0  0  0  0  0  0  0  0  0  0  0  0
  -94.0354   32.6593   -6.8075 O   0  0  0  0  0  0  0  0  0  0  0  0
  -93.5683   33.5594   -7.6635 C   0  0  0  0  0  0  0  0  0  0  0  0
  -92.0646   33.8705   -7.6655 C   0  0  0  0  0  0  0  0  0  0  0  0
  -92.4189   34.8309   -9.1721 S   0  0  0  0  0  0  0  0  0  0  0  0
  -93.4380   33.3078   -9.1267 C   0  0  0  0  0  0  0  0  0  0  0  0
  7  8  2  0  0  0
  8  9  1  0  0  0
  8  1  1  0  0  0
  1  2  2  0  0  0
  2  3  1  0  0  0
  3  4  2  0  0  0
  4 11  1  0  0  0
 11 12  1  0  0  0
 12 13  1  0  0  0
 13 14  1  0  0  0
 14 15  1  0  0  0
  4  5  1  0  0  0
  5  6  2  0  0  0
  6  1  1  0  0  0
 15 12  1  0  0  0
  9 10  1  0  0  0
M  END
> <minimizedAffinity>
-2.36377

> <CNNscore>
0.5054218769

> <CNNaffinity>
2.9332530499

> <CNN_VS>
1.4825302362

> <CNNaffinity_variance>
0.2362053692

$$$$
[H]OC(=O)c1c([H])c([H])c(OC2([H])C([H])([H])SC2([H])[H])c([H])c1[H]


 15 16  0  0  0  0  0  0  0  0999 V2000
  -84.2367   29.3951    1.5864 C   0  0  0  0  0  0  0  0  0  0  0  0
  -85.2531   29.1910    0.6640 C   0  0  0  0  0  0  0  0  0  0  0  0
  -85.8599   30.2880    0.0626 C   0  0  0  0  0  0  0  0  0  0  0  0
  -85.4919   31.5827    0.3461 C   0  0  0  0  0  0  0  0  0  0  0  0
  -84.4738   31.7740    1.2706 C   0  0  0  0  0  0  0  0  0  0  0  0
  -83.8513   30.6882    1.8859 C   0  0  0  0  0  0  0  0  0  0  0  0
  -82.3693   28.2669    2.4805 O   0  0  0  0  0  0  0  0  0  0  0  0
  -83.5982   28.2383    2.2193 C   0  0  0  0  0  0  0  0  0  0  0  0
  -84.3484   27.1168    2.5281 O   0  0  0  0  0  0  0  0  0  0  0  0
  -84.3173   26.3263    1.8830 H   0  0  0  0  0  0  0  0  0  0  0  0
  -86.0627   32.6337   -0.2204 O   0  0  0  0  0  0  0  0  0  0  0  0
  -87.1318   32.9931   -0.9196 C   0  0  0  0  0  0  0  0  0  0  0  0
  -87.2471   32.5414   -2.3826 C   0  0  0  0  0  0  0  0  0  0  0  0
  -88.9421   33.2027   -2.2953 S   0  0  0  0  0  0  0  0  0  0  0  0
  -88.4833   32.4001   -0.7124 C   0  0  0  0  0  0  0  0  0  0  0  0
  7  8  2  0  0  0
  8  9  1  0  0  0
  8  1  1  0  0  0
  1  2  2  0  0  0
  2  3  1  0  0  0
  3  4  2  0  0  0
  4 11  1  0  0  0
 11 12  1  0  0  0
 12 13  1  0  0  0
 13 14  1  0  0  0
 14 15  1  0  0  0
  4  5  1  0  0  0
  5  6  2  0  0  0
  6  1  1  0  0  0
 15 12  1  0  0  0
  9 10  1  0  0  0
M  END
> <minimizedAffinity>
-6.18739

> <CNNscore>
0.4764838815

> <CNNaffinity>
4.3067712784

> <CNN_VS>
2.0521070957

> <CNNaffinity_variance>
0.2374917269

$$$$
[H]OC(=O)c1c([H])c([H])c(OC2([H])C([H])([H])SC2([H])[H])c([H])c1[H]


 15 16  0  0  0  0  0  0  0  0999 V2000
  -88.5106   27.7335    1.2265 C   0  0  0  0  0  0  0  0  0  0  0  0
  -88.2517   28.5501    0.1349 C   0  0  0  0  0  0  0  0  0  0  0  0
  -86.9864   29.1063   -0.0170 C   0  0  0  0  0  0  0  0  0  0  0  0
  -85.9678   28.8792    0.8790 C   0  0  0  0  0  0  0  0  0  0  0  0
  -86.2392   28.0605    1.9670 C   0  0  0  0  0  0  0  0  0  0  0  0
  -87.5011   27.4922    2.1391 C   0  0  0  0  0  0  0  0  0  0  0  0
  -90.4999   26.8004    0.3710 O   0  0  0  0  0  0  0  0  0  0  0  0
  -89.8443   27.1481    1.3852 C   0  0  0  0  0  0  0  0  0  0  0  0
  -90.3797   26.9792    2.6504 O   0  0  0  0  0  0  0  0  0  0  0  0
  -91.0411   27.6792    2.9889 H   0  0  0  0  0  0  0  0  0  0  0  0
  -84.7602   29.4035    0.7440 O   0  0  0  0  0  0  0  0  0  0  0  0
  -84.1325   30.4803    0.2884 C   0  0  0  0  0  0  0  0  0  0  0  0
  -84.7293   31.8649    0.5790 C   0  0  0  0  0  0  0  0  0  0  0  0
  -83.1716   32.5135   -0.1070 S   0  0  0  0  0  0  0  0  0  0  0  0
  -82.8600   30.9938    0.8698 C   0  0  0  0  0  0  0  0  0  0  0  0
  7  8  2  0  0  0
  8  9  1  0  0  0
  8  1  1  0  0  0
  1  2  2  0  0  0
  2  3  1  0  0  0
  3  4  2  0  0  0
  4 11  1  0  0  0
 11 12  1  0  0  0
 12 13  1  0  0  0
 13 14  1  0  0  0
 14 15  1  0  0  0
  4  5  1  0  0  0
  5  6  2  0  0  0
  6  1  1  0  0  0
 15 12  1  0  0  0
  9 10  1  0  0  0
M  END
> <minimizedAffinity>
-4.72915

> <CNNscore>
0.4479634762

> <CNNaffinity>
4.1790299416

> <CNN_VS>
1.8720527887

> <CNNaffinity_variance>
0.3136629462

$$$$
[H]OC(=O)c1c([H])c([H])c(OC2([H])C([H])([H])SC2([H])[H])c([H])c1[H]


 15 16  0  0  0  0  0  0  0  0999 V2000
  -85.9623   28.4860    1.2474 C   0  0  0  0  0  0  0  0  0  0  0  0
  -84.9821   29.4601    1.3727 C   0  0  0  0  0  0  0  0  0  0  0  0
  -85.1620   30.6932    0.7559 C   0  0  0  0  0  0  0  0  0  0  0  0
  -86.2833   30.9928    0.0177 C   0  0  0  0  0  0  0  0  0  0  0  0
  -87.2569   30.0101   -0.1003 C   0  0  0  0  0  0  0  0  0  0  0  0
  -87.0973   28.7663    0.5100 C   0  0  0  0  0  0  0  0  0  0  0  0
  -84.6444   26.8784    2.3601 O   0  0  0  0  0  0  0  0  0  0  0  0
  -85.7715   27.1872    1.8979 C   0  0  0  0  0  0  0  0  0  0  0  0
  -86.8314   26.3032    2.0022 O   0  0  0  0  0  0  0  0  0  0  0  0
  -86.8943   25.5469    1.3195 H   0  0  0  0  0  0  0  0  0  0  0  0
  -86.4645   32.1629   -0.5734 O   0  0  0  0  0  0  0  0  0  0  0  0
  -87.3641   32.8633   -1.2526 C   0  0  0  0  0  0  0  0  0  0  0  0
  -86.8815   33.9841   -2.1847 C   0  0  0  0  0  0  0  0  0  0  0  0
  -88.6119   34.0537   -2.7492 S   0  0  0  0  0  0  0  0  0  0  0  0
  -88.1121   32.3206   -2.4218 C   0  0  0  0  0  0  0  0  0  0  0  0
  7  8  2  0  0  0
  8  9  1  0  0  0
  8  1  1  0  0  0
  1  2  2  0  0  0
  2  3  1  0  0  0
  3  4  2  0  0  0
  4 11  1  0  0  0
 11 12  1  0  0  0
 12 13  1  0  0  0
 13 14  1  0  0  0
 14 15  1  0  0  0
  4  5  1  0  0  0
  5  6  2  0  0  0
  6  1  1  0  0  0
 15 12  1  0  0  0
  9 10  1  0  0  0
M  END
> <minimizedAffinity>
-5.42461

> <CNNscore>
0.4404297173

> <CNNaffinity>
4.2823424339

> <CNN_VS>
1.8860708475

> <CNNaffinity_variance>
0.2466600835

$$$$
[H]OC(=O)c1c([H])c([H])c(OC2([H])C([H])([H])SC2([H])[H])c([H])c1[H]


 15 16  0  0  0  0  0  0  0  0999 V2000
  -88.2385   30.4556   -3.2123 C   0  0  0  0  0  0  0  0  0  0  0  0
  -88.0030   29.1458   -2.8193 C   0  0  0  0  0  0  0  0  0  0  0  0
  -87.3844   28.8998   -1.5986 C   0  0  0  0  0  0  0  0  0  0  0  0
  -86.9910   29.9111   -0.7533 C   0  0  0  0  0  0  0  0  0  0  0  0
  -87.2321   31.2173   -1.1576 C   0  0  0  0  0  0  0  0  0  0  0  0
  -87.8511   31.4871   -2.3778 C   0  0  0  0  0  0  0  0  0  0  0  0
  -88.2025   31.0674   -5.4891 O   0  0  0  0  0  0  0  0  0  0  0  0
  -88.8904   30.7133   -4.4988 C   0  0  0  0  0  0  0  0  0  0  0  0
  -90.2612   30.5665   -4.6216 O   0  0  0  0  0  0  0  0  0  0  0  0
  -90.8402   31.4057   -4.5691 H   0  0  0  0  0  0  0  0  0  0  0  0
  -86.4016   29.6882    0.4104 O   0  0  0  0  0  0  0  0  0  0  0  0
  -85.2262   29.3842    0.9462 C   0  0  0  0  0  0  0  0  0  0  0  0
  -84.0736   30.3917    0.8257 C   0  0  0  0  0  0  0  0  0  0  0  0
  -83.1919   29.2917    1.9791 S   0  0  0  0  0  0  0  0  0  0  0  0
  -84.9701   29.3865    2.4144 C   0  0  0  0  0  0  0  0  0  0  0  0
  7  8  2  0  0  0
  8  9  1  0  0  0
  8  1  1  0  0  0
  1  2  2  0  0  0
  2  3  1  0  0  0
  3  4  2  0  0  0
  4 11  1  0  0  0
 11 12  1  0  0  0
 12 13  1  0  0  0
 13 14  1  0  0  0
 14 15  1  0  0  0
  4  5  1  0  0  0
  5  6  2  0  0  0
  6  1  1  0  0  0
 15 12  1  0  0  0
  9 10  1  0  0  0
M  END
> <minimizedAffinity>
-5.24968

> <CNNscore>
0.2859680057

> <CNNaffinity>
4.1045465469

> <CNN_VS>
1.1737689972

> <CNNaffinity_variance>
0.3108276725

$$$$
[H]OC(=O)c1c([H])c([H])c(OC2([H])C([H])([H])SC2([H])[H])c([H])c1[H]


 15 16  0  0  0  0  0  0  0  0999 V2000
  -88.0604   26.7756   -0.8260 C   0  0  0  0  0  0  0  0  0  0  0  0
  -87.6470   26.5366    0.4769 C   0  0  0  0  0  0  0  0  0  0  0  0
  -86.7214   27.3901    1.0670 C   0  0  0  0  0  0  0  0  0  0  0  0
  -86.1912   28.4742    0.4069 C   0  0  0  0  0  0  0  0  0  0  0  0
  -86.6127   28.7027   -0.8961 C   0  0  0  0  0  0  0  0  0  0  0  0
  -87.5401   27.8596   -1.5075 C   0  0  0  0  0  0  0  0  0  0  0  0
  -89.3591   24.8080   -0.8674 O   0  0  0  0  0  0  0  0  0  0  0  0
  -89.0358   25.8755   -1.4465 C   0  0  0  0  0  0  0  0  0  0  0  0
  -89.5990   26.2016   -2.6680 O   0  0  0  0  0  0  0  0  0  0  0  0
  -89.2076   25.7713   -3.5070 H   0  0  0  0  0  0  0  0  0  0  0  0
  -85.3099   29.2926    0.9590 O   0  0  0  0  0  0  0  0  0  0  0  0
  -84.3148   30.1166    0.6559 C   0  0  0  0  0  0  0  0  0  0  0  0
  -84.5038   31.6232    0.8848 C   0  0  0  0  0  0  0  0  0  0  0  0
  -82.7276   31.7509    0.5021 S   0  0  0  0  0  0  0  0  0  0  0  0
  -83.0693   30.2297    1.4664 C   0  0  0  0  0  0  0  0  0  0  0  0
  7  8  2  0  0  0
  8  9  1  0  0  0
  8  1  1  0  0  0
  1  2  2  0  0  0
  2  3  1  0  0  0
  3  4  2  0  0  0
  4 11  1  0  0  0
 11 12  1  0  0  0
 12 13  1  0  0  0
 13 14  1  0  0  0
 14 15  1  0  0  0
  4  5  1  0  0  0
  5  6  2  0  0  0
  6  1  1  0  0  0
 15 12  1  0  0  0
  9 10  1  0  0  0
M  END
> <minimizedAffinity>
-5.05257

> <CNNscore>
0.2814145982

> <CNNaffinity>
3.9728827477

> <CNN_VS>
1.1180272102

> <CNNaffinity_variance>
0.4113902450

$$$$
[H]C([H])=C([H])C(=O)N([H])C([H])([H])C([H])([H])C([H])([H])C([H])([H])[C@@]([H])(C(=O)N1C([H])([H])C([H])([H])N(c2c([H])c([H])c([H])c(C([H])([H])[H])c2[H])C([H])([H])C1([H])[H])N([H])C(=O)C([H])([H])c1c([H])c([H])c([H])c([H])c1[H]


 37 39  0  0  0  0  0  0  0  0999 V2000
  -87.7798   28.5230   -1.1930 C   0  0  0  0  0  0  0  0  0  0  0  0
  -87.9685   29.1684   -2.5017 C   0  0  0  0  0  0  0  0  0  0  0  0
  -88.0553   28.4110   -3.5321 O   0  0  0  0  0  0  0  0  0  0  0  0
  -88.0612   30.5625   -2.6824 N   0  0  0  0  0  0  0  0  0  0  0  0
  -88.0006   31.4846   -1.5862 C   0  0  0  0  0  0  0  0  0  0  0  0
  -88.9228   32.6605   -1.8908 C   0  0  0  0  0  0  0  0  0  0  0  0
  -88.4103   33.3017   -3.0869 N   0  0  0  0  0  0  0  0  0  0  0  0
  -87.6265   32.5328   -4.0059 C   0  0  0  0  0  0  0  0  0  0  0  0
  -88.2314   31.1289   -4.0168 C   0  0  0  0  0  0  0  0  0  0  0  0
  -88.6895   34.6682   -3.3465 C   0  0  0  0  0  0  0  0  0  0  0  0
  -87.6476   35.5829   -3.2214 C   0  0  0  0  0  0  0  0  0  0  0  0
  -87.8899   36.9094   -3.4720 C   0  0  0  0  0  0  0  0  0  0  0  0
  -89.1277   37.3617   -3.8422 C   0  0  0  0  0  0  0  0  0  0  0  0
  -90.1736   36.4797   -3.9730 C   0  0  0  0  0  0  0  0  0  0  0  0
  -91.5188   36.9283   -4.3670 C   0  0  0  0  0  0  0  0  0  0  0  0
  -89.9244   35.1415   -3.7193 C   0  0  0  0  0  0  0  0  0  0  0  0
  -87.1904   29.4944   -0.2389 N   0  0  0  0  0  0  0  0  0  0  0  0
  -86.2929   29.0669    0.7561 C   0  0  0  0  0  0  0  0  0  0  0  0
  -85.9951   27.8491    0.8282 O   0  0  0  0  0  0  0  0  0  0  0  0
  -87.4622   30.4706   -0.3372 H   0  0  0  0  0  0  0  0  0  0  0  0
  -85.7221   30.0453    1.6875 C   0  0  0  0  0  0  0  0  0  0  0  0
  -84.6366   30.8435    1.1153 C   0  0  0  0  0  0  0  0  0  0  0  0
  -84.9819   31.9983    0.4299 C   0  0  0  0  0  0  0  0  0  0  0  0
  -84.0244   32.8122   -0.1451 C   0  0  0  0  0  0  0  0  0  0  0  0
  -82.6916   32.5042   -0.0571 C   0  0  0  0  0  0  0  0  0  0  0  0
  -82.3312   31.3631    0.6190 C   0  0  0  0  0  0  0  0  0  0  0  0
  -83.2977   30.5454    1.1970 C   0  0  0  0  0  0  0  0  0  0  0  0
  -89.0997   28.1474   -0.5313 C   0  0  0  0  0  0  0  0  0  0  0  0
  -90.0267   29.2992   -0.3273 C   0  0  0  0  0  0  0  0  0  0  0  0
  -91.0929   29.0476    0.7279 C   0  0  0  0  0  0  0  0  0  0  0  0
  -90.9812   27.6813    1.3101 C   0  0  0  0  0  0  0  0  0  0  0  0
  -89.8887   27.6589    3.5424 C   0  0  0  0  0  0  0  0  0  0  0  0
  -88.7286   27.5838    2.9959 O   0  0  0  0  0  0  0  0  0  0  0  0
  -91.0545   27.7159    2.7537 N   0  0  0  0  0  0  0  0  0  0  0  0
  -92.0133   27.7851    3.2006 H   0  0  0  0  0  0  0  0  0  0  0  0
  -89.8706   26.5984    5.7161 C   0  0  0  0  0  0  0  0  0  0  0  0
  -89.9499   27.6821    4.9773 C   0  0  0  0  0  0  0  0  0  0  0  0
 36 37  2  0  0  0
 37 32  1  0  0  0
 32 33  2  0  0  0
 32 34  1  0  0  0
 34 31  1  0  0  0
 31 30  1  0  0  0
 30 29  1  0  0  0
 29 28  1  0  0  0
 28  1  1  0  0  0
  1 17  1  0  0  0
 17 18  1  0  0  0
 18 19  2  0  0  0
 18 21  1  0  0  0
 21 22  1  0  0  0
 22 23  2  0  0  0
 23 24  1  0  0  0
 24 25  2  0  0  0
 25 26  1  0  0  0
 26 27  2  0  0  0
  1  2  1  0  0  0
  2  3  2  0  0  0
  2  4  1  0  0  0
  4  5  1  0  0  0
  5  6  1  0  0  0
  6  7  1  0  0  0
  7 10  1  0  0  0
 10 11  2  0  0  0
 11 12  1  0  0  0
 12 13  2  0  0  0
 13 14  1  0  0  0
 14 15  1  0  0  0
 14 16  2  0  0  0
  7  8  1  0  0  0
  8  9  1  0  0  0
 27 22  1  0  0  0
  9  4  1  0  0  0
 16 10  1  0  0  0
 34 35  1  0  0  0
 17 20  1  0  0  0
M  END
> <minimizedAffinity>
-8.88733

> <CNNscore>
0.3972930610

> <CNNaffinity>
6.7957534790

> <CNN_VS>
2.6999056339

> <CNNaffinity_variance>
0.1475383639

$$$$
[H]C([H])=C([H])C(=O)N([H])C([H])([H])C([H])([H])C([H])([H])C([H])([H])[C@@]([H])(C(=O)N1C([H])([H])C([H])([H])N(c2c([H])c([H])c([H])c(C([H])([H])[H])c2[H])C([H])([H])C1([H])[H])N([H])C(=O)C([H])([H])c1c([H])c([H])c([H])c([H])c1[H]


 37 39  0  0  0  0  0  0  0  0999 V2000
  -87.5779   27.8208   -0.3091 C   0  0  0  0  0  0  0  0  0  0  0  0
  -88.6491   28.8294   -0.2951 C   0  0  0  0  0  0  0  0  0  0  0  0
  -89.4234   28.8615    0.7258 O   0  0  0  0  0  0  0  0  0  0  0  0
  -88.8666   29.7567   -1.3332 N   0  0  0  0  0  0  0  0  0  0  0  0
  -88.0356   29.8116   -2.5003 C   0  0  0  0  0  0  0  0  0  0  0  0
  -87.9143   31.2667   -2.9405 C   0  0  0  0  0  0  0  0  0  0  0  0
  -89.2501   31.7192   -3.2799 N   0  0  0  0  0  0  0  0  0  0  0  0
  -90.3769   31.0682   -2.6828 C   0  0  0  0  0  0  0  0  0  0  0  0
  -89.9628   30.7171   -1.2538 C   0  0  0  0  0  0  0  0  0  0  0  0
  -89.4367   32.7971   -4.1834 C   0  0  0  0  0  0  0  0  0  0  0  0
  -90.6801   32.9286   -4.7952 C   0  0  0  0  0  0  0  0  0  0  0  0
  -90.8882   33.9654   -5.6688 C   0  0  0  0  0  0  0  0  0  0  0  0
  -89.9080   34.8763   -5.9575 C   0  0  0  0  0  0  0  0  0  0  0  0
  -88.6715   34.7692   -5.3672 C   0  0  0  0  0  0  0  0  0  0  0  0
  -87.5921   35.7278   -5.6540 C   0  0  0  0  0  0  0  0  0  0  0  0
  -88.4660   33.7214   -4.4858 C   0  0  0  0  0  0  0  0  0  0  0  0
  -86.2798   28.4684    0.0018 N   0  0  0  0  0  0  0  0  0  0  0  0
  -85.9168   28.7430    1.3326 C   0  0  0  0  0  0  0  0  0  0  0  0
  -86.7068   28.4329    2.2581 O   0  0  0  0  0  0  0  0  0  0  0  0
  -85.6732   28.7009   -0.7820 H   0  0  0  0  0  0  0  0  0  0  0  0
  -84.6280   29.3829    1.6160 C   0  0  0  0  0  0  0  0  0  0  0  0
  -84.4220   30.6420    0.8982 C   0  0  0  0  0  0  0  0  0  0  0  0
  -83.1230   30.9740    0.5449 C   0  0  0  0  0  0  0  0  0  0  0  0
  -82.8336   32.1434   -0.1322 C   0  0  0  0  0  0  0  0  0  0  0  0
  -83.8271   33.0212   -0.4805 C   0  0  0  0  0  0  0  0  0  0  0  0
  -85.1210   32.7079   -0.1383 C   0  0  0  0  0  0  0  0  0  0  0  0
  -85.4093   31.5295    0.5436 C   0  0  0  0  0  0  0  0  0  0  0  0
  -87.7274   26.7946    0.8069 C   0  0  0  0  0  0  0  0  0  0  0  0
  -88.3156   25.4964    0.3639 C   0  0  0  0  0  0  0  0  0  0  0  0
  -89.8160   25.5553    0.1207 C   0  0  0  0  0  0  0  0  0  0  0  0
  -90.5869   25.1427    1.3264 C   0  0  0  0  0  0  0  0  0  0  0  0
  -90.7117   25.6611    3.7540 C   0  0  0  0  0  0  0  0  0  0  0  0
  -91.3165   24.5506    3.9803 O   0  0  0  0  0  0  0  0  0  0  0  0
  -90.3160   26.0132    2.4486 N   0  0  0  0  0  0  0  0  0  0  0  0
  -89.8104   26.9254    2.2587 H   0  0  0  0  0  0  0  0  0  0  0  0
  -90.0637   27.7697    4.7459 C   0  0  0  0  0  0  0  0  0  0  0  0
  -90.4572   26.5226    4.8748 C   0  0  0  0  0  0  0  0  0  0  0  0
 36 37  2  0  0  0
 37 32  1  0  0  0
 32 33  2  0  0  0
 32 34  1  0  0  0
 34 31  1  0  0  0
 31 30  1  0  0  0
 30 29  1  0  0  0
 29 28  1  0  0  0
 28  1  1  0  0  0
  1 17  1  0  0  0
 17 18  1  0  0  0
 18 19  2  0  0  0
 18 21  1  0  0  0
 21 22  1  0  0  0
 22 23  2  0  0  0
 23 24  1  0  0  0
 24 25  2  0  0  0
 25 26  1  0  0  0
 26 27  2  0  0  0
  1  2  1  0  0  0
  2  3  2  0  0  0
  2  4  1  0  0  0
  4  5  1  0  0  0
  5  6  1  0  0  0
  6  7  1  0  0  0
  7 10  1  0  0  0
 10 11  2  0  0  0
 11 12  1  0  0  0
 12 13  2  0  0  0
 13 14  1  0  0  0
 14 15  1  0  0  0
 14 16  2  0  0  0
  7  8  1  0  0  0
  8  9  1  0  0  0
 27 22  1  0  0  0
  9  4  1  0  0  0
 16 10  1  0  0  0
 34 35  1  0  0  0
 17 20  1  0  0  0
M  END
> <minimizedAffinity>
-8.50536

> <CNNscore>
0.3806409240

> <CNNaffinity>
6.8588972092

> <CNN_VS>
2.6107769012

> <CNNaffinity_variance>
0.1718099117

$$$$
[H]C([H])=C([H])C(=O)N([H])C([H])([H])C([H])([H])C([H])([H])C([H])([H])[C@@]([H])(C(=O)N1C([H])([H])C([H])([H])N(c2c([H])c([H])c([H])c(C([H])([H])[H])c2[H])C([H])([H])C1([H])[H])N([H])C(=O)C([H])([H])c1c([H])c([H])c([H])c([H])c1[H]


 37 39  0  0  0  0  0  0  0  0999 V2000
  -88.4394   29.9247   -2.6564 C   0  0  0  0  0  0  0  0  0  0  0  0
  -88.0911   30.8581   -3.7392 C   0  0  0  0  0  0  0  0  0  0  0  0
  -87.6598   30.3602   -4.8388 O   0  0  0  0  0  0  0  0  0  0  0  0
  -88.2078   32.2582   -3.6354 N   0  0  0  0  0  0  0  0  0  0  0  0
  -88.7046   32.9018   -2.4545 C   0  0  0  0  0  0  0  0  0  0  0  0
  -89.4936   34.1383   -2.8722 C   0  0  0  0  0  0  0  0  0  0  0  0
  -88.5653   35.0246   -3.5482 N   0  0  0  0  0  0  0  0  0  0  0  0
  -87.4007   34.4688   -4.1686 C   0  0  0  0  0  0  0  0  0  0  0  0
  -87.8255   33.1202   -4.7496 C   0  0  0  0  0  0  0  0  0  0  0  0
  -88.8127   36.4206   -3.6014 C   0  0  0  0  0  0  0  0  0  0  0  0
  -90.0766   36.8451   -4.0015 C   0  0  0  0  0  0  0  0  0  0  0  0
  -90.3433   38.1894   -4.0562 C   0  0  0  0  0  0  0  0  0  0  0  0
  -89.4021   39.1278   -3.7285 C   0  0  0  0  0  0  0  0  0  0  0  0
  -88.1465   38.7356   -3.3303 C   0  0  0  0  0  0  0  0  0  0  0  0
  -87.1077   39.7148   -2.9722 C   0  0  0  0  0  0  0  0  0  0  0  0
  -87.8818   37.3776   -3.2763 C   0  0  0  0  0  0  0  0  0  0  0  0
  -87.9806   30.4754   -1.3574 N   0  0  0  0  0  0  0  0  0  0  0  0
  -86.9563   29.8408   -0.6319 C   0  0  0  0  0  0  0  0  0  0  0  0
  -86.4327   28.7988   -1.0977 O   0  0  0  0  0  0  0  0  0  0  0  0
  -88.4354   31.3219   -1.0211 H   0  0  0  0  0  0  0  0  0  0  0  0
  -86.5185   30.4039    0.6496 C   0  0  0  0  0  0  0  0  0  0  0  0
  -85.1031   30.7763    0.6794 C   0  0  0  0  0  0  0  0  0  0  0  0
  -84.7305   31.9350    0.0154 C   0  0  0  0  0  0  0  0  0  0  0  0
  -83.4167   32.3629   -0.0116 C   0  0  0  0  0  0  0  0  0  0  0  0
  -82.4302   31.6522    0.6212 C   0  0  0  0  0  0  0  0  0  0  0  0
  -82.7818   30.5009    1.2846 C   0  0  0  0  0  0  0  0  0  0  0  0
  -84.1056   30.0725    1.3101 C   0  0  0  0  0  0  0  0  0  0  0  0
  -89.9445   29.7911   -2.4620 C   0  0  0  0  0  0  0  0  0  0  0  0
  -90.3731   28.4642   -1.9300 C   0  0  0  0  0  0  0  0  0  0  0  0
  -89.4043   27.3353   -2.2476 C   0  0  0  0  0  0  0  0  0  0  0  0
  -89.4147   26.2858   -1.1910 C   0  0  0  0  0  0  0  0  0  0  0  0
  -88.5645   26.7839    1.0908 C   0  0  0  0  0  0  0  0  0  0  0  0
  -89.7642   26.9153    1.5307 O   0  0  0  0  0  0  0  0  0  0  0  0
  -88.3231   26.4646   -0.2598 N   0  0  0  0  0  0  0  0  0  0  0  0
  -87.3347   26.3482   -0.6251 H   0  0  0  0  0  0  0  0  0  0  0  0
  -86.2220   26.8652    1.6874 C   0  0  0  0  0  0  0  0  0  0  0  0
  -87.4878   26.9739    2.0225 C   0  0  0  0  0  0  0  0  0  0  0  0
 36 37  2  0  0  0
 37 32  1  0  0  0
 32 33  2  0  0  0
 32 34  1  0  0  0
 34 31  1  0  0  0
 31 30  1  0  0  0
 30 29  1  0  0  0
 29 28  1  0  0  0
 28  1  1  0  0  0
  1 17  1  0  0  0
 17 18  1  0  0  0
 18 19  2  0  0  0
 18 21  1  0  0  0
 21 22  1  0  0  0
 22 23  2  0  0  0
 23 24  1  0  0  0
 24 25  2  0  0  0
 25 26  1  0  0  0
 26 27  2  0  0  0
  1  2  1  0  0  0
  2  3  2  0  0  0
  2  4  1  0  0  0
  4  5  1  0  0  0
  5  6  1  0  0  0
  6  7  1  0  0  0
  7 10  1  0  0  0
 10 11  2  0  0  0
 11 12  1  0  0  0
 12 13  2  0  0  0
 13 14  1  0  0  0
 14 15  1  0  0  0
 14 16  2  0  0  0
  7  8  1  0  0  0
  8  9  1  0  0  0
 27 22  1  0  0  0
  9  4  1  0  0  0
 16 10  1  0  0  0
 34 35  1  0  0  0
 17 20  1  0  0  0
M  END
> <minimizedAffinity>
-8.52658

> <CNNscore>
0.2710827291

> <CNNaffinity>
6.4183259010

> <CNN_VS>
1.7398972511

> <CNNaffinity_variance>
0.4681099951

$$$$
[H]C([H])=C([H])C(=O)N([H])C([H])([H])C([H])([H])C([H])([H])C([H])([H])[C@@]([H])(C(=O)N1C([H])([H])C([H])([H])N(c2c([H])c([H])c([H])c(C([H])([H])[H])c2[H])C([H])([H])C1([H])[H])N([H])C(=O)C([H])([H])c1c([H])c([H])c([H])c([H])c1[H]


 37 39  0  0  0  0  0  0  0  0999 V2000
  -88.0727   28.5072   -0.6869 C   0  0  0  0  0  0  0  0  0  0  0  0
  -88.0917   29.0603   -2.0502 C   0  0  0  0  0  0  0  0  0  0  0  0
  -87.9456   28.2428   -3.0266 O   0  0  0  0  0  0  0  0  0  0  0  0
  -88.2634   30.4285   -2.3389 N   0  0  0  0  0  0  0  0  0  0  0  0
  -88.4593   31.4111   -1.3133 C   0  0  0  0  0  0  0  0  0  0  0  0
  -89.4083   32.4812   -1.8426 C   0  0  0  0  0  0  0  0  0  0  0  0
  -88.7566   33.0991   -2.9818 N   0  0  0  0  0  0  0  0  0  0  0  0
  -87.7723   32.3542   -3.7075 C   0  0  0  0  0  0  0  0  0  0  0  0
  -88.2537   30.9034   -3.7191 C   0  0  0  0  0  0  0  0  0  0  0  0
  -89.0962   34.4189   -3.3764 C   0  0  0  0  0  0  0  0  0  0  0  0
  -90.2941   34.6083   -4.0597 C   0  0  0  0  0  0  0  0  0  0  0  0
  -90.6485   35.8752   -4.4477 C   0  0  0  0  0  0  0  0  0  0  0  0
  -89.8580   36.9609   -4.1825 C   0  0  0  0  0  0  0  0  0  0  0  0
  -88.6704   36.8015   -3.5094 C   0  0  0  0  0  0  0  0  0  0  0  0
  -87.7931   37.9441   -3.2078 C   0  0  0  0  0  0  0  0  0  0  0  0
  -88.3169   35.5209   -3.1194 C   0  0  0  0  0  0  0  0  0  0  0  0
  -87.3102   29.4127    0.2075 N   0  0  0  0  0  0  0  0  0  0  0  0
  -86.2650   28.9165    1.0072 C   0  0  0  0  0  0  0  0  0  0  0  0
  -85.9835   27.6938    0.9557 O   0  0  0  0  0  0  0  0  0  0  0  0
  -87.5753   30.3956    0.2146 H   0  0  0  0  0  0  0  0  0  0  0  0
  -85.5245   29.8306    1.8829 C   0  0  0  0  0  0  0  0  0  0  0  0
  -84.6204   30.7327    1.1676 C   0  0  0  0  0  0  0  0  0  0  0  0
  -85.1824   31.8190    0.5144 C   0  0  0  0  0  0  0  0  0  0  0  0
  -84.4068   32.7217   -0.1879 C   0  0  0  0  0  0  0  0  0  0  0  0
  -83.0462   32.5737   -0.2634 C   0  0  0  0  0  0  0  0  0  0  0  0
  -82.4720   31.5024    0.3784 C   0  0  0  0  0  0  0  0  0  0  0  0
  -83.2558   30.5950    1.0848 C   0  0  0  0  0  0  0  0  0  0  0  0
  -89.4561   28.4774   -0.0493 C   0  0  0  0  0  0  0  0  0  0  0  0
  -89.8775   27.1266    0.4253 C   0  0  0  0  0  0  0  0  0  0  0  0
  -88.8403   26.0410    0.1815 C   0  0  0  0  0  0  0  0  0  0  0  0
  -89.4665   24.7773   -0.2970 C   0  0  0  0  0  0  0  0  0  0  0  0
  -90.2628   22.6113    0.6259 C   0  0  0  0  0  0  0  0  0  0  0  0
  -90.1498   22.0558   -0.5269 O   0  0  0  0  0  0  0  0  0  0  0  0
  -89.9320   23.9685    0.8074 N   0  0  0  0  0  0  0  0  0  0  0  0
  -90.0171   24.4288    1.7586 H   0  0  0  0  0  0  0  0  0  0  0  0
  -90.4149   22.0253    2.9676 C   0  0  0  0  0  0  0  0  0  0  0  0
  -90.7360   21.8008    1.7134 C   0  0  0  0  0  0  0  0  0  0  0  0
 36 37  2  0  0  0
 37 32  1  0  0  0
 32 33  2  0  0  0
 32 34  1  0  0  0
 34 31  1  0  0  0
 31 30  1  0  0  0
 30 29  1  0  0  0
 29 28  1  0  0  0
 28  1  1  0  0  0
  1 17  1  0  0  0
 17 18  1  0  0  0
 18 19  2  0  0  0
 18 21  1  0  0  0
 21 22  1  0  0  0
 22 23  2  0  0  0
 23 24  1  0  0  0
 24 25  2  0  0  0
 25 26  1  0  0  0
 26 27  2  0  0  0
  1  2  1  0  0  0
  2  3  2  0  0  0
  2  4  1  0  0  0
  4  5  1  0  0  0
  5  6  1  0  0  0
  6  7  1  0  0  0
  7 10  1  0  0  0
 10 11  2  0  0  0
 11 12  1  0  0  0
 12 13  2  0  0  0
 13 14  1  0  0  0
 14 15  1  0  0  0
 14 16  2  0  0  0
  7  8  1  0  0  0
  8  9  1  0  0  0
 27 22  1  0  0  0
  9  4  1  0  0  0
 16 10  1  0  0  0
 34 35  1  0  0  0
 17 20  1  0  0  0
M  END
> <minimizedAffinity>
-8.48676

> <CNNscore>
0.2115303427

> <CNNaffinity>
6.3636527061

> <CNN_VS>
1.3461056948

> <CNNaffinity_variance>
0.2752530873

$$$$
[H]C([H])=C([H])C(=O)N([H])C([H])([H])C([H])([H])C([H])([H])C([H])([H])[C@@]([H])(C(=O)N1C([H])([H])C([H])([H])N(c2c([H])c([H])c([H])c(C([H])([H])[H])c2[H])C([H])([H])C1([H])[H])N([H])C(=O)C([H])([H])c1c([H])c([H])c([H])c([H])c1[H]


 37 39  0  0  0  0  0  0  0  0999 V2000
  -86.9952   27.3955    0.9054 C   0  0  0  0  0  0  0  0  0  0  0  0
  -87.3686   27.5798   -0.5058 C   0  0  0  0  0  0  0  0  0  0  0  0
  -87.3918   26.5409   -1.2563 O   0  0  0  0  0  0  0  0  0  0  0  0
  -87.7024   28.8258   -1.0723 N   0  0  0  0  0  0  0  0  0  0  0  0
  -87.7283   30.0362   -0.3042 C   0  0  0  0  0  0  0  0  0  0  0  0
  -88.8499   30.9229   -0.8352 C   0  0  0  0  0  0  0  0  0  0  0  0
  -88.5257   31.2356   -2.2141 N   0  0  0  0  0  0  0  0  0  0  0  0
  -87.6832   30.3416   -2.9496 C   0  0  0  0  0  0  0  0  0  0  0  0
  -88.0462   28.9306   -2.4869 C   0  0  0  0  0  0  0  0  0  0  0  0
  -89.0433   32.4056   -2.8273 C   0  0  0  0  0  0  0  0  0  0  0  0
  -88.5306   33.6354   -2.4245 C   0  0  0  0  0  0  0  0  0  0  0  0
  -89.0102   34.7815   -3.0056 C   0  0  0  0  0  0  0  0  0  0  0  0
  -89.9797   34.7521   -3.9715 C   0  0  0  0  0  0  0  0  0  0  0  0
  -90.5029   33.5511   -4.3872 C   0  0  0  0  0  0  0  0  0  0  0  0
  -91.5475   33.4793   -5.4215 C   0  0  0  0  0  0  0  0  0  0  0  0
  -90.0156   32.3968   -3.7981 C   0  0  0  0  0  0  0  0  0  0  0  0
  -85.9817   28.4088    1.2889 N   0  0  0  0  0  0  0  0  0  0  0  0
  -84.8434   28.0396    2.0280 C   0  0  0  0  0  0  0  0  0  0  0  0
  -84.6941   26.8381    2.3610 O   0  0  0  0  0  0  0  0  0  0  0  0
  -86.1466   29.3698    0.9960 H   0  0  0  0  0  0  0  0  0  0  0  0
  -83.8544   29.0585    2.3950 C   0  0  0  0  0  0  0  0  0  0  0  0
  -83.8873   30.2487    1.5434 C   0  0  0  0  0  0  0  0  0  0  0  0
  -82.8107   30.4610    0.6959 C   0  0  0  0  0  0  0  0  0  0  0  0
  -82.7547   31.5587   -0.1418 C   0  0  0  0  0  0  0  0  0  0  0  0
  -83.7681   32.4814   -0.1642 C   0  0  0  0  0  0  0  0  0  0  0  0
  -84.8434   32.2865    0.6694 C   0  0  0  0  0  0  0  0  0  0  0  0
  -84.8969   31.1802    1.5120 C   0  0  0  0  0  0  0  0  0  0  0  0
  -88.1490   27.6843    1.8574 C   0  0  0  0  0  0  0  0  0  0  0  0
  -89.4660   27.1570    1.3936 C   0  0  0  0  0  0  0  0  0  0  0  0
  -89.5553   25.6385    1.4035 C   0  0  0  0  0  0  0  0  0  0  0  0
  -90.3282   25.1391    2.5746 C   0  0  0  0  0  0  0  0  0  0  0  0
  -89.0918   24.4614    4.6214 C   0  0  0  0  0  0  0  0  0  0  0  0
  -89.3252   25.6021    5.1641 O   0  0  0  0  0  0  0  0  0  0  0  0
  -89.5708   24.1663    3.3299 N   0  0  0  0  0  0  0  0  0  0  0  0
  -89.3865   23.2236    2.8814 H   0  0  0  0  0  0  0  0  0  0  0  0
  -87.6008   23.8350    6.4199 C   0  0  0  0  0  0  0  0  0  0  0  0
  -88.3296   23.5067    5.3770 C   0  0  0  0  0  0  0  0  0  0  0  0
 36 37  2  0  0  0
 37 32  1  0  0  0
 32 33  2  0  0  0
 32 34  1  0  0  0
 34 31  1  0  0  0
 31 30  1  0  0  0
 30 29  1  0  0  0
 29 28  1  0  0  0
 28  1  1  0  0  0
  1 17  1  0  0  0
 17 18  1  0  0  0
 18 19  2  0  0  0
 18 21  1  0  0  0
 21 22  1  0  0  0
 22 23  2  0  0  0
 23 24  1  0  0  0
 24 25  2  0  0  0
 25 26  1  0  0  0
 26 27  2  0  0  0
  1  2  1  0  0  0
  2  3  2  0  0  0
  2  4  1  0  0  0
  4  5  1  0  0  0
  5  6  1  0  0  0
  6  7  1  0  0  0
  7 10  1  0  0  0
 10 11  2  0  0  0
 11 12  1  0  0  0
 12 13  2  0  0  0
 13 14  1  0  0  0
 14 15  1  0  0  0
 14 16  2  0  0  0
  7  8  1  0  0  0
  8  9  1  0  0  0
 27 22  1  0  0  0
  9  4  1  0  0  0
 16 10  1  0  0  0
 34 35  1  0  0  0
 17 20  1  0  0  0
M  END
> <minimizedAffinity>
-8.82262

> <CNNscore>
0.2087530494

> <CNNaffinity>
6.7590227127

> <CNN_VS>
1.4109666348

> <CNNaffinity_variance>
0.4165524840

$$$$
[H]C([H])=C([H])C(=O)N([H])C([H])([H])C([H])([H])C([H])([H])C([H])([H])[C@@]([H])(C(=O)N1C([H])([H])C([H])([H])N(c2c([H])c([H])c([H])c(C([H])([H])[H])c2[H])C([H])([H])C1([H])[H])N([H])C(=O)C([H])([H])c1c([H])c([H])c([H])c([H])c1[H]


 37 39  0  0  0  0  0  0  0  0999 V2000
  -87.7671   28.3097   -1.0945 C   0  0  0  0  0  0  0  0  0  0  0  0
  -87.9559   28.9445   -2.4084 C   0  0  0  0  0  0  0  0  0  0  0  0
  -88.0351   28.1792   -3.4336 O   0  0  0  0  0  0  0  0  0  0  0  0
  -88.0567   30.3366   -2.5994 N   0  0  0  0  0  0  0  0  0  0  0  0
  -88.0049   31.2669   -1.5096 C   0  0  0  0  0  0  0  0  0  0  0  0
  -88.9334   32.4349   -1.8253 C   0  0  0  0  0  0  0  0  0  0  0  0
  -88.4214   33.0707   -3.0245 N   0  0  0  0  0  0  0  0  0  0  0  0
  -87.6302   32.3000   -3.9357 C   0  0  0  0  0  0  0  0  0  0  0  0
  -88.2265   30.8925   -3.9383 C   0  0  0  0  0  0  0  0  0  0  0  0
  -88.7082   34.4336   -3.2947 C   0  0  0  0  0  0  0  0  0  0  0  0
  -87.6727   35.3557   -3.1719 C   0  0  0  0  0  0  0  0  0  0  0  0
  -87.9223   36.6789   -3.4327 C   0  0  0  0  0  0  0  0  0  0  0  0
  -89.1615   37.1207   -3.8108 C   0  0  0  0  0  0  0  0  0  0  0  0
  -90.2012   36.2311   -3.9396 C   0  0  0  0  0  0  0  0  0  0  0  0
  -91.5477   36.6685   -4.3420 C   0  0  0  0  0  0  0  0  0  0  0  0
  -89.9446   34.8964   -3.6756 C   0  0  0  0  0  0  0  0  0  0  0  0
  -87.2048   29.2970   -0.1405 N   0  0  0  0  0  0  0  0  0  0  0  0
  -86.2424   28.9082    0.8087 C   0  0  0  0  0  0  0  0  0  0  0  0
  -85.8633   27.7115    0.8398 O   0  0  0  0  0  0  0  0  0  0  0  0
  -87.5434   30.2549   -0.2046 H   0  0  0  0  0  0  0  0  0  0  0  0
  -85.7000   29.9018    1.7411 C   0  0  0  0  0  0  0  0  0  0  0  0
  -84.6571   30.7498    1.1612 C   0  0  0  0  0  0  0  0  0  0  0  0
  -85.0625   31.8601    0.4364 C   0  0  0  0  0  0  0  0  0  0  0  0
  -84.1483   32.7156   -0.1487 C   0  0  0  0  0  0  0  0  0  0  0  0
  -82.8005   32.4949   -0.0318 C   0  0  0  0  0  0  0  0  0  0  0  0
  -82.3808   31.3988    0.6835 C   0  0  0  0  0  0  0  0  0  0  0  0
  -83.3037   30.5391    1.2715 C   0  0  0  0  0  0  0  0  0  0  0  0
  -89.0857   27.9127   -0.4428 C   0  0  0  0  0  0  0  0  0  0  0  0
  -89.6286   28.9335    0.5010 C   0  0  0  0  0  0  0  0  0  0  0  0
  -91.1243   29.1685    0.3548 C   0  0  0  0  0  0  0  0  0  0  0  0
  -91.5181   29.3454   -1.0706 C   0  0  0  0  0  0  0  0  0  0  0  0
  -92.2614   27.6667   -2.7460 C   0  0  0  0  0  0  0  0  0  0  0  0
  -91.2954   27.9906   -3.5284 O   0  0  0  0  0  0  0  0  0  0  0  0
  -92.4243   28.3039   -1.5003 N   0  0  0  0  0  0  0  0  0  0  0  0
  -93.2160   28.0346   -0.8486 H   0  0  0  0  0  0  0  0  0  0  0  0
  -92.9922   25.9688   -4.3058 C   0  0  0  0  0  0  0  0  0  0  0  0
  -93.1614   26.6381   -3.1877 C   0  0  0  0  0  0  0  0  0  0  0  0
 36 37  2  0  0  0
 37 32  1  0  0  0
 32 33  2  0  0  0
 32 34  1  0  0  0
 34 31  1  0  0  0
 31 30  1  0  0  0
 30 29  1  0  0  0
 29 28  1  0  0  0
 28  1  1  0  0  0
  1 17  1  0  0  0
 17 18  1  0  0  0
 18 19  2  0  0  0
 18 21  1  0  0  0
 21 22  1  0  0  0
 22 23  2  0  0  0
 23 24  1  0  0  0
 24 25  2  0  0  0
 25 26  1  0  0  0
 26 27  2  0  0  0
  1  2  1  0  0  0
  2  3  2  0  0  0
  2  4  1  0  0  0
  4  5  1  0  0  0
  5  6  1  0  0  0
  6  7  1  0  0  0
  7 10  1  0  0  0
 10 11  2  0  0  0
 11 12  1  0  0  0
 12 13  2  0  0  0
 13 14  1  0  0  0
 14 15  1  0  0  0
 14 16  2  0  0  0
  7  8  1  0  0  0
  8  9  1  0  0  0
 27 22  1  0  0  0
  9  4  1  0  0  0
 16 10  1  0  0  0
 34 35  1  0  0  0
 17 20  1  0  0  0
M  END
> <minimizedAffinity>
-8.25572

> <CNNscore>
0.1772971898

> <CNNaffinity>
6.3831701279

> <CNN_VS>
1.1317181587

> <CNNaffinity_variance>
0.3774092495

$$$$
[H]C([H])=C([H])C(=O)N([H])C([H])([H])C([H])([H])C([H])([H])C([H])([H])[C@@]([H])(C(=O)N1C([H])([H])C([H])([H])N(c2c([H])c([H])c([H])c(C([H])([H])[H])c2[H])C([H])([H])C1([H])[H])N([H])C(=O)C([H])([H])c1c([H])c([H])c([H])c([H])c1[H]


 37 39  0  0  0  0  0  0  0  0999 V2000
  -87.6594   29.3883   -0.1507 C   0  0  0  0  0  0  0  0  0  0  0  0
  -87.8243   29.5959   -1.5980 C   0  0  0  0  0  0  0  0  0  0  0  0
  -87.8756   28.5567   -2.3465 O   0  0  0  0  0  0  0  0  0  0  0  0
  -87.9312   30.8646   -2.2010 N   0  0  0  0  0  0  0  0  0  0  0  0
  -87.9100   32.0802   -1.4410 C   0  0  0  0  0  0  0  0  0  0  0  0
  -88.8400   33.0865   -2.1108 C   0  0  0  0  0  0  0  0  0  0  0  0
  -88.3068   33.3389   -3.4361 N   0  0  0  0  0  0  0  0  0  0  0  0
  -87.4903   32.3407   -4.0582 C   0  0  0  0  0  0  0  0  0  0  0  0
  -88.0760   30.9896   -3.6480 C   0  0  0  0  0  0  0  0  0  0  0  0
  -88.5977   34.5534   -4.1093 C   0  0  0  0  0  0  0  0  0  0  0  0
  -89.6559   35.3246   -3.6369 C   0  0  0  0  0  0  0  0  0  0  0  0
  -89.9546   36.5059   -4.2666 C   0  0  0  0  0  0  0  0  0  0  0  0
  -89.2419   36.9500   -5.3477 C   0  0  0  0  0  0  0  0  0  0  0  0
  -88.1924   36.2078   -5.8340 C   0  0  0  0  0  0  0  0  0  0  0  0
  -87.4042   36.6513   -6.9952 C   0  0  0  0  0  0  0  0  0  0  0  0
  -87.8943   35.0162   -5.1950 C   0  0  0  0  0  0  0  0  0  0  0  0
  -88.6981   28.4490    0.3394 N   0  0  0  0  0  0  0  0  0  0  0  0
  -89.9975   28.9042    0.6266 C   0  0  0  0  0  0  0  0  0  0  0  0
  -90.2697   30.1191    0.4632 O   0  0  0  0  0  0  0  0  0  0  0  0
  -88.4297   27.4739    0.4560 H   0  0  0  0  0  0  0  0  0  0  0  0
  -91.0081   27.9572    1.1090 C   0  0  0  0  0  0  0  0  0  0  0  0
  -90.6441   27.2898    2.3600 C   0  0  0  0  0  0  0  0  0  0  0  0
  -90.6511   28.0511    3.5188 C   0  0  0  0  0  0  0  0  0  0  0  0
  -90.3193   27.5061    4.7447 C   0  0  0  0  0  0  0  0  0  0  0  0
  -89.9697   26.1856    4.8583 C   0  0  0  0  0  0  0  0  0  0  0  0
  -89.9577   25.4159    3.7195 C   0  0  0  0  0  0  0  0  0  0  0  0
  -90.2923   25.9675    2.4864 C   0  0  0  0  0  0  0  0  0  0  0  0
  -86.3586   28.6734    0.1923 C   0  0  0  0  0  0  0  0  0  0  0  0
  -86.3943   27.9356    1.4892 C   0  0  0  0  0  0  0  0  0  0  0  0
  -85.0171   27.5954    2.0381 C   0  0  0  0  0  0  0  0  0  0  0  0
  -84.4229   28.7388    2.7849 C   0  0  0  0  0  0  0  0  0  0  0  0
  -83.6308   30.7786    1.6063 C   0  0  0  0  0  0  0  0  0  0  0  0
  -84.6827   31.4207    1.9688 O   0  0  0  0  0  0  0  0  0  0  0  0
  -83.4394   29.4357    1.9864 N   0  0  0  0  0  0  0  0  0  0  0  0
  -82.5694   28.9045    1.6953 H   0  0  0  0  0  0  0  0  0  0  0  0
  -82.9928   32.2064   -0.2388 C   0  0  0  0  0  0  0  0  0  0  0  0
  -82.6656   31.4779    0.8047 C   0  0  0  0  0  0  0  0  0  0  0  0
 36 37  2  0  0  0
 37 32  1  0  0  0
 32 33  2  0  0  0
 32 34  1  0  0  0
 34 31  1  0  0  0
 31 30  1  0  0  0
 30 29  1  0  0  0
 29 28  1  0  0  0
 28  1  1  0  0  0
  1 17  1  0  0  0
 17 18  1  0  0  0
 18 19  2  0  0  0
 18 21  1  0  0  0
 21 22  1  0  0  0
 22 23  2  0  0  0
 23 24  1  0  0  0
 24 25  2  0  0  0
 25 26  1  0  0  0
 26 27  2  0  0  0
  1  2  1  0  0  0
  2  3  2  0  0  0
  2  4  1  0  0  0
  4  5  1  0  0  0
  5  6  1  0  0  0
  6  7  1  0  0  0
  7 10  1  0  0  0
 10 11  2  0  0  0
 11 12  1  0  0  0
 12 13  2  0  0  0
 13 14  1  0  0  0
 14 15  1  0  0  0
 14 16  2  0  0  0
  7  8  1  0  0  0
  8  9  1  0  0  0
 27 22  1  0  0  0
  9  4  1  0  0  0
 16 10  1  0  0  0
 34 35  1  0  0  0
 17 20  1  0  0  0
M  END
> <minimizedAffinity>
-8.73472

> <CNNscore>
0.1663611531

> <CNNaffinity>
6.0168623924

> <CNN_VS>
1.0009721518

> <CNNaffinity_variance>
1.1649177074

$$$$
[H]C([H])=C([H])C(=O)N([H])C([H])([H])C([H])([H])C([H])([H])C([H])([H])[C@@]([H])(C(=O)N1C([H])([H])C([H])([H])N(c2c([H])c([H])c([H])c(C([H])([H])[H])c2[H])C([H])([H])C1([H])[H])N([H])C(=O)C([H])([H])c1c([H])c([H])c([H])c([H])c1[H]


 37 39  0  0  0  0  0  0  0  0999 V2000
  -89.0475   29.2448   -1.9086 C   0  0  0  0  0  0  0  0  0  0  0  0
  -89.8981   30.3241   -2.4345 C   0  0  0  0  0  0  0  0  0  0  0  0
  -91.1672   30.1452   -2.4148 O   0  0  0  0  0  0  0  0  0  0  0  0
  -89.3979   31.5352   -2.9518 N   0  0  0  0  0  0  0  0  0  0  0  0
  -87.9959   31.8330   -2.9901 C   0  0  0  0  0  0  0  0  0  0  0  0
  -87.8115   33.3281   -2.7521 C   0  0  0  0  0  0  0  0  0  0  0  0
  -88.4788   34.0157   -3.8412 N   0  0  0  0  0  0  0  0  0  0  0  0
  -89.5479   33.3560   -4.5282 C   0  0  0  0  0  0  0  0  0  0  0  0
  -90.3064   32.5525   -3.4718 C   0  0  0  0  0  0  0  0  0  0  0  0
  -88.0836   35.3263   -4.2141 C   0  0  0  0  0  0  0  0  0  0  0  0
  -87.6589   35.5326   -5.5236 C   0  0  0  0  0  0  0  0  0  0  0  0
  -87.2765   36.7915   -5.9112 C   0  0  0  0  0  0  0  0  0  0  0  0
  -87.3001   37.8530   -5.0472 C   0  0  0  0  0  0  0  0  0  0  0  0
  -87.7150   37.6766   -3.7489 C   0  0  0  0  0  0  0  0  0  0  0  0
  -87.7521   38.7929   -2.7904 C   0  0  0  0  0  0  0  0  0  0  0  0
  -88.1004   36.4042   -3.3622 C   0  0  0  0  0  0  0  0  0  0  0  0
  -88.3578   29.7082   -0.6794 N   0  0  0  0  0  0  0  0  0  0  0  0
  -87.0204   29.3512   -0.4305 C   0  0  0  0  0  0  0  0  0  0  0  0
  -86.4143   28.6330   -1.2633 O   0  0  0  0  0  0  0  0  0  0  0  0
  -88.8906   30.2884   -0.0344 H   0  0  0  0  0  0  0  0  0  0  0  0
  -86.3589   29.8219    0.7909 C   0  0  0  0  0  0  0  0  0  0  0  0
  -85.1724   30.6425    0.5425 C   0  0  0  0  0  0  0  0  0  0  0  0
  -85.3597   31.8720   -0.0706 C   0  0  0  0  0  0  0  0  0  0  0  0
  -84.2979   32.7124   -0.3463 C   0  0  0  0  0  0  0  0  0  0  0  0
  -83.0145   32.3575   -0.0210 C   0  0  0  0  0  0  0  0  0  0  0  0
  -82.8104   31.1421    0.5876 C   0  0  0  0  0  0  0  0  0  0  0  0
  -83.8817   30.2979    0.8639 C   0  0  0  0  0  0  0  0  0  0  0  0
  -89.8559   28.0493   -1.4205 C   0  0  0  0  0  0  0  0  0  0  0  0
  -89.7204   26.8340   -2.2762 C   0  0  0  0  0  0  0  0  0  0  0  0
  -89.3966   25.5689   -1.4961 C   0  0  0  0  0  0  0  0  0  0  0  0
  -88.8029   25.8781   -0.1656 C   0  0  0  0  0  0  0  0  0  0  0  0
  -89.5076   25.8956    2.2178 C   0  0  0  0  0  0  0  0  0  0  0  0
  -88.6513   26.8152    2.4848 O   0  0  0  0  0  0  0  0  0  0  0  0
  -89.6357   25.3881    0.9099 N   0  0  0  0  0  0  0  0  0  0  0  0
  -90.3461   24.6343    0.6839 H   0  0  0  0  0  0  0  0  0  0  0  0
  -90.2941   24.1625    3.7103 C   0  0  0  0  0  0  0  0  0  0  0  0
  -90.3223   25.4092    3.2962 C   0  0  0  0  0  0  0  0  0  0  0  0
 36 37  2  0  0  0
 37 32  1  0  0  0
 32 33  2  0  0  0
 32 34  1  0  0  0
 34 31  1  0  0  0
 31 30  1  0  0  0
 30 29  1  0  0  0
 29 28  1  0  0  0
 28  1  1  0  0  0
  1 17  1  0  0  0
 17 18  1  0  0  0
 18 19  2  0  0  0
 18 21  1  0  0  0
 21 22  1  0  0  0
 22 23  2  0  0  0
 23 24  1  0  0  0
 24 25  2  0  0  0
 25 26  1  0  0  0
 26 27  2  0  0  0
  1  2  1  0  0  0
  2  3  2  0  0  0
  2  4  1  0  0  0
  4  5  1  0  0  0
  5  6  1  0  0  0
  6  7  1  0  0  0
  7 10  1  0  0  0
 10 11  2  0  0  0
 11 12  1  0  0  0
 12 13  2  0  0  0
 13 14  1  0  0  0
 14 15  1  0  0  0
 14 16  2  0  0  0
  7  8  1  0  0  0
  8  9  1  0  0  0
 27 22  1  0  0  0
  9  4  1  0  0  0
 16 10  1  0  0  0
 34 35  1  0  0  0
 17 20  1  0  0  0
M  END
> <minimizedAffinity>
-7.97614

> <CNNscore>
0.1602723449

> <CNNaffinity>
6.3073172569

> <CNN_VS>
1.0108885765

> <CNNaffinity_variance>
0.3973779082

$$$$
[H]C([H])=C([H])C(=O)N([H])C([H])([H])C([H])([H])C([H])([H])C([H])([H])[C@@]([H])(C(=O)N1C([H])([H])C([H])([H])N(c2c([H])c([H])c([H])c(C([H])([H])[H])c2[H])C([H])([H])C1([H])[H])N([H])C(=O)C([H])([H])c1c([H])c([H])c([H])c([H])c1[H]


 37 39  0  0  0  0  0  0  0  0999 V2000
  -88.7350   28.4100   -0.6470 C   0  0  0  0  0  0  0  0  0  0  0  0
  -89.7082   29.4636   -0.9751 C   0  0  0  0  0  0  0  0  0  0  0  0
  -90.8119   29.4787   -0.3235 O   0  0  0  0  0  0  0  0  0  0  0  0
  -89.4936   30.4511   -1.9568 N   0  0  0  0  0  0  0  0  0  0  0  0
  -88.2801   30.5277   -2.7165 C   0  0  0  0  0  0  0  0  0  0  0  0
  -87.9681   31.9963   -2.9841 C   0  0  0  0  0  0  0  0  0  0  0  0
  -89.0638   32.5248   -3.7743 N   0  0  0  0  0  0  0  0  0  0  0  0
  -90.3472   31.8955   -3.6910 C   0  0  0  0  0  0  0  0  0  0  0  0
  -90.5160   31.4544   -2.2372 C   0  0  0  0  0  0  0  0  0  0  0  0
  -88.8685   33.6543   -4.6103 C   0  0  0  0  0  0  0  0  0  0  0  0
  -87.7171   34.4139   -4.4235 C   0  0  0  0  0  0  0  0  0  0  0  0
  -87.5018   35.5079   -5.2222 C   0  0  0  0  0  0  0  0  0  0  0  0
  -88.3869   35.8758   -6.1995 C   0  0  0  0  0  0  0  0  0  0  0  0
  -89.5315   35.1432   -6.4047 C   0  0  0  0  0  0  0  0  0  0  0  0
  -90.5075   35.5086   -7.4440 C   0  0  0  0  0  0  0  0  0  0  0  0
  -89.7445   34.0395   -5.5963 C   0  0  0  0  0  0  0  0  0  0  0  0
  -87.7900   28.9079    0.3828 N   0  0  0  0  0  0  0  0  0  0  0  0
  -86.4097   28.9677    0.1194 C   0  0  0  0  0  0  0  0  0  0  0  0
  -85.9845   28.5934   -1.0012 O   0  0  0  0  0  0  0  0  0  0  0  0
  -88.1823   29.2000    1.2757 H   0  0  0  0  0  0  0  0  0  0  0  0
  -85.4947   29.4644    1.1523 C   0  0  0  0  0  0  0  0  0  0  0  0
  -84.6499   30.5750    0.7098 C   0  0  0  0  0  0  0  0  0  0  0  0
  -85.2741   31.6526    0.1004 C   0  0  0  0  0  0  0  0  0  0  0  0
  -84.5566   32.7440   -0.3510 C   0  0  0  0  0  0  0  0  0  0  0  0
  -83.1942   32.7995   -0.2109 C   0  0  0  0  0  0  0  0  0  0  0  0
  -82.5588   31.7399    0.3913 C   0  0  0  0  0  0  0  0  0  0  0  0
  -83.2840   30.6421    0.8448 C   0  0  0  0  0  0  0  0  0  0  0  0
  -89.3814   27.2083    0.0304 C   0  0  0  0  0  0  0  0  0  0  0  0
  -88.6850   25.9148   -0.2329 C   0  0  0  0  0  0  0  0  0  0  0  0
  -89.5829   24.8489   -0.8422 C   0  0  0  0  0  0  0  0  0  0  0  0
  -90.6519   24.4220    0.1028 C   0  0  0  0  0  0  0  0  0  0  0  0
  -90.9344   23.2122    2.2555 C   0  0  0  0  0  0  0  0  0  0  0  0
  -92.2096   23.3526    2.1899 O   0  0  0  0  0  0  0  0  0  0  0  0
  -90.1003   23.7203    1.2404 N   0  0  0  0  0  0  0  0  0  0  0  0
  -89.0480   23.6003    1.2872 H   0  0  0  0  0  0  0  0  0  0  0  0
  -90.0181   21.2649    3.3593 C   0  0  0  0  0  0  0  0  0  0  0  0
  -90.3970   22.5226    3.3952 C   0  0  0  0  0  0  0  0  0  0  0  0
 36 37  2  0  0  0
 37 32  1  0  0  0
 32 33  2  0  0  0
 32 34  1  0  0  0
 34 31  1  0  0  0
 31 30  1  0  0  0
 30 29  1  0  0  0
 29 28  1  0  0  0
 28  1  1  0  0  0
  1 17  1  0  0  0
 17 18  1  0  0  0
 18 19  2  0  0  0
 18 21  1  0  0  0
 21 22  1  0  0  0
 22 23  2  0  0  0
 23 24  1  0  0  0
 24 25  2  0  0  0
 25 26  1  0  0  0
 26 27  2  0  0  0
  1  2  1  0  0  0
  2  3  2  0  0  0
  2  4  1  0  0  0
  4  5  1  0  0  0
  5  6  1  0  0  0
  6  7  1  0  0  0
  7 10  1  0  0  0
 10 11  2  0  0  0
 11 12  1  0  0  0
 12 13  2  0  0  0
 13 14  1  0  0  0
 14 15  1  0  0  0
 14 16  2  0  0  0
  7  8  1  0  0  0
  8  9  1  0  0  0
 27 22  1  0  0  0
  9  4  1  0  0  0
 16 10  1  0  0  0
 34 35  1  0  0  0
 17 20  1  0  0  0
M  END
> <minimizedAffinity>
-8.32222

> <CNNscore>
0.1496948898

> <CNNaffinity>
6.2357153893

> <CNN_VS>
0.9334547520

> <CNNaffinity_variance>
0.1113187522

$$$$
[H]c1nc([H])c(N([H])c2c([H])c(-c3c([H])c([H])c4c([H])c(C#N)c([H])nn34)nc([H])c2C(=O)N([H])[C@]2([H])C([H])([H])C([H])([H])[C@@]([H])(N([H])C(=O)C3([H])C([H])([H])C3([H])[H])C([H])([H])C2([H])[H])c([H])c1[H]


 42 47  0  0  0  0  0  0  0  0999 V2000
  -86.2995   32.8507   -1.4133 C   0  0  0  0  0  0  0  0  0  0  0  0
  -86.2351   33.5037   -2.6078 C   0  0  0  0  0  0  0  0  0  0  0  0
  -87.3117   33.8766   -3.4076 C   0  0  0  0  0  0  0  0  0  0  0  0
  -88.5800   33.5413   -2.9226 C   0  0  0  0  0  0  0  0  0  0  0  0
  -88.6610   32.8670   -1.6954 C   0  0  0  0  0  0  0  0  0  0  0  0
  -87.5689   32.5493   -0.9954 N   0  0  0  0  0  0  0  0  0  0  0  0
  -84.1721   29.2492    1.6850 C   0  0  0  0  0  0  0  0  0  0  0  0
  -85.3646   29.2299    1.0095 C   0  0  0  0  0  0  0  0  0  0  0  0
  -85.6967   30.2860    0.2645 N   0  0  0  0  0  0  0  0  0  0  0  0
  -84.9413   31.3644    0.1325 N   0  0  0  0  0  0  0  0  0  0  0  0
  -85.1729   32.4641   -0.5746 C   0  0  0  0  0  0  0  0  0  0  0  0
  -84.0597   33.2891   -0.3663 C   0  0  0  0  0  0  0  0  0  0  0  0
  -83.1874   32.6413    0.4723 C   0  0  0  0  0  0  0  0  0  0  0  0
  -83.7671   31.4116    0.7815 C   0  0  0  0  0  0  0  0  0  0  0  0
  -83.3627   30.3581    1.5670 C   0  0  0  0  0  0  0  0  0  0  0  0
  -83.5153   27.2130    3.1438 N   0  0  0  0  0  0  0  0  0  0  0  0
  -83.8058   28.1261    2.4918 C   0  0  0  0  0  0  0  0  0  0  0  0
  -89.7863   33.9471   -3.5948 C   0  0  0  0  0  0  0  0  0  0  0  0
  -90.1385   35.1774   -3.5689 O   0  0  0  0  0  0  0  0  0  0  0  0
  -90.6260   33.0635   -4.2985 N   0  0  0  0  0  0  0  0  0  0  0  0
  -90.3799   32.0588   -4.3571 H   0  0  0  0  0  0  0  0  0  0  0  0
  -91.8214   33.6003   -4.9309 C   0  0  0  0  0  0  0  0  0  0  0  0
  -91.4399   33.8931   -6.3853 C   0  0  0  0  0  0  0  0  0  0  0  0
  -92.7019   34.2612   -7.1571 C   0  0  0  0  0  0  0  0  0  0  0  0
  -93.4645   32.9399   -7.3349 C   0  0  0  0  0  0  0  0  0  0  0  0
  -93.1741   31.9925   -6.2232 C   0  0  0  0  0  0  0  0  0  0  0  0
  -93.0171   32.7272   -4.8813 C   0  0  0  0  0  0  0  0  0  0  0  0
  -94.8808   33.2754   -7.3555 N   0  0  0  0  0  0  0  0  0  0  0  0
  -95.5160   33.5371   -8.5871 C   0  0  0  0  0  0  0  0  0  0  0  0
  -94.8485   33.4857   -9.6716 O   0  0  0  0  0  0  0  0  0  0  0  0
  -95.4255   33.3201   -6.4777 H   0  0  0  0  0  0  0  0  0  0  0  0
  -96.9505   33.8723   -8.6394 C   0  0  0  0  0  0  0  0  0  0  0  0
  -97.4753   34.7215   -9.7104 C   0  0  0  0  0  0  0  0  0  0  0  0
  -97.1978   35.3747   -8.3964 C   0  0  0  0  0  0  0  0  0  0  0  0
  -87.0857   34.4298   -4.6687 N   0  0  0  0  0  0  0  0  0  0  0  0
  -86.6962   33.8520   -5.4446 H   0  0  0  0  0  0  0  0  0  0  0  0
  -87.3011   35.7867   -4.9852 C   0  0  0  0  0  0  0  0  0  0  0  0
  -87.1102   36.8476   -4.0904 C   0  0  0  0  0  0  0  0  0  0  0  0
  -87.3380   38.1494   -4.4551 C   0  0  0  0  0  0  0  0  0  0  0  0
  -87.7656   38.4221   -5.7329 C   0  0  0  0  0  0  0  0  0  0  0  0
  -87.9599   37.4285   -6.6166 N   0  0  0  0  0  0  0  0  0  0  0  0
  -87.7363   36.1640   -6.2576 C   0  0  0  0  0  0  0  0  0  0  0  0
 16 17  3  0  0  0
 17  7  1  0  0  0
  7  8  1  0  0  0
  8  9  2  0  0  0
  9 10  1  0  0  0
 10 11  1  0  0  0
 11  1  1  0  0  0
  1  2  2  0  0  0
  2  3  1  0  0  0
  3 35  1  0  0  0
 35 37  1  0  0  0
 37 38  2  0  0  0
 38 39  1  0  0  0
 39 40  2  0  0  0
 40 41  1  0  0  0
 41 42  2  0  0  0
  3  4  2  0  0  0
  4 18  1  0  0  0
 18 19  2  0  0  0
 18 20  1  0  0  0
 20 22  1  0  0  0
 22 23  1  0  0  0
 23 24  1  0  0  0
 24 25  1  0  0  0
 25 28  1  0  0  0
 28 29  1  0  0  0
 29 30  2  0  0  0
 29 32  1  0  0  0
 32 33  1  0  0  0
 33 34  1  0  0  0
 25 26  1  0  0  0
 26 27  1  0  0  0
  4  5  1  0  0  0
  5  6  2  0  0  0
 11 12  2  0  0  0
 12 13  1  0  0  0
 13 14  2  0  0  0
 14 15  1  0  0  0
 15  7  2  0  0  0
 14 10  1  0  0  0
  6  1  1  0  0  0
 42 37  1  0  0  0
 27 22  1  0  0  0
 34 32  1  0  0  0
 35 36  1  0  0  0
 20 21  1  0  0  0
 28 31  1  0  0  0
M  END
> <minimizedAffinity>
-8.27091

> <CNNscore>
0.4237696826

> <CNNaffinity>
7.0393905640

> <CNN_VS>
2.9830803871

> <CNNaffinity_variance>
0.0370490998

$$$$
[H]c1nc([H])c(N([H])c2c([H])c(-c3c([H])c([H])c4c([H])c(C#N)c([H])nn34)nc([H])c2C(=O)N([H])[C@]2([H])C([H])([H])C([H])([H])[C@@]([H])(N([H])C(=O)C3([H])C([H])([H])C3([H])[H])C([H])([H])C2([H])[H])c([H])c1[H]


 42 47  0  0  0  0  0  0  0  0999 V2000
  -87.7270   28.7379   -0.4461 C   0  0  0  0  0  0  0  0  0  0  0  0
  -87.2515   30.0149   -0.4227 C   0  0  0  0  0  0  0  0  0  0  0  0
  -87.3433   30.9524   -1.4477 C   0  0  0  0  0  0  0  0  0  0  0  0
  -87.9921   30.5262   -2.6111 C   0  0  0  0  0  0  0  0  0  0  0  0
  -88.4845   29.2134   -2.6499 C   0  0  0  0  0  0  0  0  0  0  0  0
  -88.3493   28.3820   -1.6135 N   0  0  0  0  0  0  0  0  0  0  0  0
  -90.1722   25.1951    2.4807 C   0  0  0  0  0  0  0  0  0  0  0  0
  -90.6567   25.9775    1.4648 C   0  0  0  0  0  0  0  0  0  0  0  0
  -89.8240   26.8216    0.8527 N   0  0  0  0  0  0  0  0  0  0  0  0
  -88.5450   26.9550    1.1649 N   0  0  0  0  0  0  0  0  0  0  0  0
  -87.6343   27.7583    0.6281 C   0  0  0  0  0  0  0  0  0  0  0  0
  -86.4468   27.5042    1.3271 C   0  0  0  0  0  0  0  0  0  0  0  0
  -86.6948   26.5411    2.2729 C   0  0  0  0  0  0  0  0  0  0  0  0
  -88.0419   26.2011    2.1552 C   0  0  0  0  0  0  0  0  0  0  0  0
  -88.8440   25.3104    2.8288 C   0  0  0  0  0  0  0  0  0  0  0  0
  -91.7758   23.5605    3.6898 N   0  0  0  0  0  0  0  0  0  0  0  0
  -91.0550   24.2897    3.1494 C   0  0  0  0  0  0  0  0  0  0  0  0
  -88.2446   31.4158   -3.7141 C   0  0  0  0  0  0  0  0  0  0  0  0
  -88.4143   30.9327   -4.8871 O   0  0  0  0  0  0  0  0  0  0  0  0
  -88.3221   32.8157   -3.5893 N   0  0  0  0  0  0  0  0  0  0  0  0
  -88.2012   33.2555   -2.6591 H   0  0  0  0  0  0  0  0  0  0  0  0
  -88.5779   33.6042   -4.7850 C   0  0  0  0  0  0  0  0  0  0  0  0
  -90.0606   33.9861   -4.7353 C   0  0  0  0  0  0  0  0  0  0  0  0
  -90.3453   34.9865   -5.8497 C   0  0  0  0  0  0  0  0  0  0  0  0
  -89.7077   36.3030   -5.3813 C   0  0  0  0  0  0  0  0  0  0  0  0
  -88.5393   36.0532   -4.4923 C   0  0  0  0  0  0  0  0  0  0  0  0
  -87.7419   34.8171   -4.9412 C   0  0  0  0  0  0  0  0  0  0  0  0
  -89.2872   37.0126   -6.5806 N   0  0  0  0  0  0  0  0  0  0  0  0
  -89.8597   38.2650   -6.8847 C   0  0  0  0  0  0  0  0  0  0  0  0
  -90.7440   38.7650   -6.1149 O   0  0  0  0  0  0  0  0  0  0  0  0
  -88.5715   36.6096   -7.2088 H   0  0  0  0  0  0  0  0  0  0  0  0
  -89.4483   39.0099   -8.0883 C   0  0  0  0  0  0  0  0  0  0  0  0
  -90.3905   39.9015   -8.7671 C   0  0  0  0  0  0  0  0  0  0  0  0
  -90.2078   38.5360   -9.3437 C   0  0  0  0  0  0  0  0  0  0  0  0
  -86.6975   32.1836   -1.3273 N   0  0  0  0  0  0  0  0  0  0  0  0
  -87.1338   33.0553   -1.6978 H   0  0  0  0  0  0  0  0  0  0  0  0
  -85.4154   32.3505   -0.7651 C   0  0  0  0  0  0  0  0  0  0  0  0
  -84.8672   31.5144    0.2165 C   0  0  0  0  0  0  0  0  0  0  0  0
  -83.6133   31.7278    0.7281 C   0  0  0  0  0  0  0  0  0  0  0  0
  -82.8732   32.7904    0.2665 C   0  0  0  0  0  0  0  0  0  0  0  0
  -83.3687   33.6129   -0.6737 N   0  0  0  0  0  0  0  0  0  0  0  0
  -84.5884   33.4011   -1.1690 C   0  0  0  0  0  0  0  0  0  0  0  0
 16 17  3  0  0  0
 17  7  1  0  0  0
  7  8  1  0  0  0
  8  9  2  0  0  0
  9 10  1  0  0  0
 10 11  1  0  0  0
 11  1  1  0  0  0
  1  2  2  0  0  0
  2  3  1  0  0  0
  3 35  1  0  0  0
 35 37  1  0  0  0
 37 38  2  0  0  0
 38 39  1  0  0  0
 39 40  2  0  0  0
 40 41  1  0  0  0
 41 42  2  0  0  0
  3  4  2  0  0  0
  4 18  1  0  0  0
 18 19  2  0  0  0
 18 20  1  0  0  0
 20 22  1  0  0  0
 22 23  1  0  0  0
 23 24  1  0  0  0
 24 25  1  0  0  0
 25 28  1  0  0  0
 28 29  1  0  0  0
 29 30  2  0  0  0
 29 32  1  0  0  0
 32 33  1  0  0  0
 33 34  1  0  0  0
 25 26  1  0  0  0
 26 27  1  0  0  0
  4  5  1  0  0  0
  5  6  2  0  0  0
 11 12  2  0  0  0
 12 13  1  0  0  0
 13 14  2  0  0  0
 14 15  1  0  0  0
 15  7  2  0  0  0
 14 10  1  0  0  0
  6  1  1  0  0  0
 42 37  1  0  0  0
 27 22  1  0  0  0
 34 32  1  0  0  0
 35 36  1  0  0  0
 20 21  1  0  0  0
 28 31  1  0  0  0
M  END
> <minimizedAffinity>
-8.54304

> <CNNscore>
0.2433397472

> <CNNaffinity>
7.1810226440

> <CNN_VS>
1.7474281788

> <CNNaffinity_variance>
0.0904324204

$$$$
[H]c1nc([H])c(N([H])c2c([H])c(-c3c([H])c([H])c4c([H])c(C#N)c([H])nn34)nc([H])c2C(=O)N([H])[C@]2([H])C([H])([H])C([H])([H])[C@@]([H])(N([H])C(=O)C3([H])C([H])([H])C3([H])[H])C([H])([H])C2([H])[H])c([H])c1[H]


 42 47  0  0  0  0  0  0  0  0999 V2000
  -88.4274   29.7607   -1.1873 C   0  0  0  0  0  0  0  0  0  0  0  0
  -87.7114   30.7931   -0.6592 C   0  0  0  0  0  0  0  0  0  0  0  0
  -87.5824   32.0716   -1.1946 C   0  0  0  0  0  0  0  0  0  0  0  0
  -88.2623   32.3046   -2.3944 C   0  0  0  0  0  0  0  0  0  0  0  0
  -89.0014   31.2501   -2.9505 C   0  0  0  0  0  0  0  0  0  0  0  0
  -89.0674   30.0526   -2.3629 N   0  0  0  0  0  0  0  0  0  0  0  0
  -90.2374   26.8025    2.6946 C   0  0  0  0  0  0  0  0  0  0  0  0
  -90.3297   28.1575    2.5093 C   0  0  0  0  0  0  0  0  0  0  0  0
  -89.7812   28.6942    1.4177 N   0  0  0  0  0  0  0  0  0  0  0  0
  -89.1461   27.9963    0.4900 N   0  0  0  0  0  0  0  0  0  0  0  0
  -88.5654   28.4241   -0.6248 C   0  0  0  0  0  0  0  0  0  0  0  0
  -88.0420   27.2800   -1.2417 C   0  0  0  0  0  0  0  0  0  0  0  0
  -88.3340   26.1905   -0.4597 C   0  0  0  0  0  0  0  0  0  0  0  0
  -89.0406   26.6669    0.6438 C   0  0  0  0  0  0  0  0  0  0  0  0
  -89.5826   26.0481    1.7455 C   0  0  0  0  0  0  0  0  0  0  0  0
  -91.2914   25.7379    4.8067 N   0  0  0  0  0  0  0  0  0  0  0  0
  -90.8161   26.2143    3.8631 C   0  0  0  0  0  0  0  0  0  0  0  0
  -88.2975   33.6041   -3.0121 C   0  0  0  0  0  0  0  0  0  0  0  0
  -87.2007   34.2229   -3.2409 O   0  0  0  0  0  0  0  0  0  0  0  0
  -89.4840   34.2579   -3.3941 N   0  0  0  0  0  0  0  0  0  0  0  0
  -90.3979   33.7950   -3.2391 H   0  0  0  0  0  0  0  0  0  0  0  0
  -89.3832   35.5743   -4.0055 C   0  0  0  0  0  0  0  0  0  0  0  0
  -88.1485   36.2382   -3.3878 C   0  0  0  0  0  0  0  0  0  0  0  0
  -87.8655   37.5358   -4.1362 C   0  0  0  0  0  0  0  0  0  0  0  0
  -87.2923   37.1009   -5.4932 C   0  0  0  0  0  0  0  0  0  0  0  0
  -87.8161   35.7677   -5.9007 C   0  0  0  0  0  0  0  0  0  0  0  0
  -89.2853   35.5863   -5.4836 C   0  0  0  0  0  0  0  0  0  0  0  0
  -87.6892   38.1159   -6.4581 N   0  0  0  0  0  0  0  0  0  0  0  0
  -86.7155   38.6978   -7.2959 C   0  0  0  0  0  0  0  0  0  0  0  0
  -85.4962   38.3390   -7.2004 O   0  0  0  0  0  0  0  0  0  0  0  0
  -88.6770   38.4112   -6.5375 H   0  0  0  0  0  0  0  0  0  0  0  0
  -87.0891   39.7228   -8.2873 C   0  0  0  0  0  0  0  0  0  0  0  0
  -88.4565   39.7896   -8.8061 C   0  0  0  0  0  0  0  0  0  0  0  0
  -87.4389   39.0991   -9.6534 C   0  0  0  0  0  0  0  0  0  0  0  0
  -86.7118   32.9901   -0.6063 N   0  0  0  0  0  0  0  0  0  0  0  0
  -86.9949   33.9844   -0.4702 H   0  0  0  0  0  0  0  0  0  0  0  0
  -85.3945   32.6847   -0.2073 C   0  0  0  0  0  0  0  0  0  0  0  0
  -85.0663   31.7845    0.8149 C   0  0  0  0  0  0  0  0  0  0  0  0
  -83.7646   31.5286    1.1608 C   0  0  0  0  0  0  0  0  0  0  0  0
  -82.7535   32.1722    0.4875 C   0  0  0  0  0  0  0  0  0  0  0  0
  -83.0326   33.0426   -0.4976 N   0  0  0  0  0  0  0  0  0  0  0  0
  -84.3001   33.2879   -0.8311 C   0  0  0  0  0  0  0  0  0  0  0  0
 16 17  3  0  0  0
 17  7  1  0  0  0
  7  8  1  0  0  0
  8  9  2  0  0  0
  9 10  1  0  0  0
 10 11  1  0  0  0
 11  1  1  0  0  0
  1  2  2  0  0  0
  2  3  1  0  0  0
  3 35  1  0  0  0
 35 37  1  0  0  0
 37 38  2  0  0  0
 38 39  1  0  0  0
 39 40  2  0  0  0
 40 41  1  0  0  0
 41 42  2  0  0  0
  3  4  2  0  0  0
  4 18  1  0  0  0
 18 19  2  0  0  0
 18 20  1  0  0  0
 20 22  1  0  0  0
 22 23  1  0  0  0
 23 24  1  0  0  0
 24 25  1  0  0  0
 25 28  1  0  0  0
 28 29  1  0  0  0
 29 30  2  0  0  0
 29 32  1  0  0  0
 32 33  1  0  0  0
 33 34  1  0  0  0
 25 26  1  0  0  0
 26 27  1  0  0  0
  4  5  1  0  0  0
  5  6  2  0  0  0
 11 12  2  0  0  0
 12 13  1  0  0  0
 13 14  2  0  0  0
 14 15  1  0  0  0
 15  7  2  0  0  0
 14 10  1  0  0  0
  6  1  1  0  0  0
 42 37  1  0  0  0
 27 22  1  0  0  0
 34 32  1  0  0  0
 35 36  1  0  0  0
 20 21  1  0  0  0
 28 31  1  0  0  0
M  END
> <minimizedAffinity>
-9.00135

> <CNNscore>
0.2322237194

> <CNNaffinity>
7.0586409569

> <CNN_VS>
1.6391838789

> <CNNaffinity_variance>
0.1148028225

$$$$
[H]c1nc([H])c(N([H])c2c([H])c(-c3c([H])c([H])c4c([H])c(C#N)c([H])nn34)nc([H])c2C(=O)N([H])[C@]2([H])C([H])([H])C([H])([H])[C@@]([H])(N([H])C(=O)C3([H])C([H])([H])C3([H])[H])C([H])([H])C2([H])[H])c([H])c1[H]


 42 47  0  0  0  0  0  0  0  0999 V2000
  -87.9009   32.5990   -3.1933 C   0  0  0  0  0  0  0  0  0  0  0  0
  -87.2568   32.5135   -1.9952 C   0  0  0  0  0  0  0  0  0  0  0  0
  -87.1816   31.3929   -1.1728 C   0  0  0  0  0  0  0  0  0  0  0  0
  -87.8369   30.2477   -1.6368 C   0  0  0  0  0  0  0  0  0  0  0  0
  -88.5058   30.3221   -2.8674 C   0  0  0  0  0  0  0  0  0  0  0  0
  -88.5239   31.4452   -3.5898 N   0  0  0  0  0  0  0  0  0  0  0  0
  -90.4046   35.0625   -7.0351 C   0  0  0  0  0  0  0  0  0  0  0  0
  -90.6810   33.8594   -6.4393 C   0  0  0  0  0  0  0  0  0  0  0  0
  -89.8842   33.4317   -5.4581 N   0  0  0  0  0  0  0  0  0  0  0  0
  -88.8316   34.1007   -5.0160 N   0  0  0  0  0  0  0  0  0  0  0  0
  -87.9762   33.7707   -4.0556 C   0  0  0  0  0  0  0  0  0  0  0  0
  -87.0535   34.8234   -3.9929 C   0  0  0  0  0  0  0  0  0  0  0  0
  -87.3969   35.7611   -4.9344 C   0  0  0  0  0  0  0  0  0  0  0  0
  -88.5366   35.2828   -5.5796 C   0  0  0  0  0  0  0  0  0  0  0  0
  -89.3154   35.7833   -6.5961 C   0  0  0  0  0  0  0  0  0  0  0  0
  -91.9308   35.9033   -8.9505 N   0  0  0  0  0  0  0  0  0  0  0  0
  -91.2472   35.5307   -8.0920 C   0  0  0  0  0  0  0  0  0  0  0  0
  -87.7636   28.9908   -0.9393 C   0  0  0  0  0  0  0  0  0  0  0  0
  -86.6448   28.3728   -0.8705 O   0  0  0  0  0  0  0  0  0  0  0  0
  -88.8638   28.3792   -0.3095 N   0  0  0  0  0  0  0  0  0  0  0  0
  -89.7896   28.8439   -0.3285 H   0  0  0  0  0  0  0  0  0  0  0  0
  -88.6578   27.1031    0.3585 C   0  0  0  0  0  0  0  0  0  0  0  0
  -89.0422   27.3223    1.8251 C   0  0  0  0  0  0  0  0  0  0  0  0
  -89.0489   25.9735    2.5354 C   0  0  0  0  0  0  0  0  0  0  0  0
  -90.3084   25.2570    2.0265 C   0  0  0  0  0  0  0  0  0  0  0  0
  -90.6657   25.7004    0.6504 C   0  0  0  0  0  0  0  0  0  0  0  0
  -89.4127   25.9590   -0.2030 C   0  0  0  0  0  0  0  0  0  0  0  0
  -90.0105   23.8322    2.0365 N   0  0  0  0  0  0  0  0  0  0  0  0
  -90.6960   22.9843    2.9308 C   0  0  0  0  0  0  0  0  0  0  0  0
  -91.5649   23.4681    3.7279 O   0  0  0  0  0  0  0  0  0  0  0  0
  -89.3048   23.4359    1.3928 H   0  0  0  0  0  0  0  0  0  0  0  0
  -90.4203   21.5365    2.9585 C   0  0  0  0  0  0  0  0  0  0  0  0
  -89.6744   20.9024    1.8699 C   0  0  0  0  0  0  0  0  0  0  0  0
  -91.1631   20.7895    1.8326 C   0  0  0  0  0  0  0  0  0  0  0  0
  -86.5915   31.4909    0.0880 N   0  0  0  0  0  0  0  0  0  0  0  0
  -87.1718   31.6521    0.9394 H   0  0  0  0  0  0  0  0  0  0  0  0
  -85.2009   31.4401    0.3145 C   0  0  0  0  0  0  0  0  0  0  0  0
  -84.5589   30.4539    1.0750 C   0  0  0  0  0  0  0  0  0  0  0  0
  -83.2008   30.4572    1.2624 C   0  0  0  0  0  0  0  0  0  0  0  0
  -82.4478   31.4546    0.6895 C   0  0  0  0  0  0  0  0  0  0  0  0
  -83.0312   32.4168   -0.0452 N   0  0  0  0  0  0  0  0  0  0  0  0
  -84.3523   32.4091   -0.2254 C   0  0  0  0  0  0  0  0  0  0  0  0
 16 17  3  0  0  0
 17  7  1  0  0  0
  7  8  1  0  0  0
  8  9  2  0  0  0
  9 10  1  0  0  0
 10 11  1  0  0  0
 11  1  1  0  0  0
  1  2  2  0  0  0
  2  3  1  0  0  0
  3 35  1  0  0  0
 35 37  1  0  0  0
 37 38  2  0  0  0
 38 39  1  0  0  0
 39 40  2  0  0  0
 40 41  1  0  0  0
 41 42  2  0  0  0
  3  4  2  0  0  0
  4 18  1  0  0  0
 18 19  2  0  0  0
 18 20  1  0  0  0
 20 22  1  0  0  0
 22 23  1  0  0  0
 23 24  1  0  0  0
 24 25  1  0  0  0
 25 28  1  0  0  0
 28 29  1  0  0  0
 29 30  2  0  0  0
 29 32  1  0  0  0
 32 33  1  0  0  0
 33 34  1  0  0  0
 25 26  1  0  0  0
 26 27  1  0  0  0
  4  5  1  0  0  0
  5  6  2  0  0  0
 11 12  2  0  0  0
 12 13  1  0  0  0
 13 14  2  0  0  0
 14 15  1  0  0  0
 15  7  2  0  0  0
 14 10  1  0  0  0
  6  1  1  0  0  0
 42 37  1  0  0  0
 27 22  1  0  0  0
 34 32  1  0  0  0
 35 36  1  0  0  0
 20 21  1  0  0  0
 28 31  1  0  0  0
M  END
> <minimizedAffinity>
-9.55086

> <CNNscore>
0.1745024174

> <CNNaffinity>
7.1116456985

> <CNN_VS>
1.2409993410

> <CNNaffinity_variance>
0.0893776119

$$$$
[H]c1nc([H])c(N([H])c2c([H])c(-c3c([H])c([H])c4c([H])c(C#N)c([H])nn34)nc([H])c2C(=O)N([H])[C@]2([H])C([H])([H])C([H])([H])[C@@]([H])(N([H])C(=O)C3([H])C([H])([H])C3([H])[H])C([H])([H])C2([H])[H])c([H])c1[H]


 42 47  0  0  0  0  0  0  0  0999 V2000
  -88.4162   29.0167   -1.6160 C   0  0  0  0  0  0  0  0  0  0  0  0
  -87.9083   30.0520   -0.8896 C   0  0  0  0  0  0  0  0  0  0  0  0
  -87.8015   31.3781   -1.2993 C   0  0  0  0  0  0  0  0  0  0  0  0
  -88.2672   31.6605   -2.5875 C   0  0  0  0  0  0  0  0  0  0  0  0
  -88.7905   30.6039   -3.3472 C   0  0  0  0  0  0  0  0  0  0  0  0
  -88.8528   29.3586   -2.8687 N   0  0  0  0  0  0  0  0  0  0  0  0
  -90.8717   24.4556   -2.1297 C   0  0  0  0  0  0  0  0  0  0  0  0
  -91.0737   25.6389   -2.7916 C   0  0  0  0  0  0  0  0  0  0  0  0
  -90.3049   26.6852   -2.4837 N   0  0  0  0  0  0  0  0  0  0  0  0
  -89.3478   26.6559   -1.5704 N   0  0  0  0  0  0  0  0  0  0  0  0
  -88.5315   27.6298   -1.1855 C   0  0  0  0  0  0  0  0  0  0  0  0
  -87.7164   27.0699   -0.1928 C   0  0  0  0  0  0  0  0  0  0  0  0
  -88.0811   25.7584   -0.0173 C   0  0  0  0  0  0  0  0  0  0  0  0
  -89.1260   25.5105   -0.9064 C   0  0  0  0  0  0  0  0  0  0  0  0
  -89.8817   24.3932   -1.1733 C   0  0  0  0  0  0  0  0  0  0  0  0
  -92.3547   22.4134   -2.7085 N   0  0  0  0  0  0  0  0  0  0  0  0
  -91.6923   23.3273   -2.4457 C   0  0  0  0  0  0  0  0  0  0  0  0
  -88.3079   33.0019   -3.1077 C   0  0  0  0  0  0  0  0  0  0  0  0
  -87.2484   33.5152   -3.6100 O   0  0  0  0  0  0  0  0  0  0  0  0
  -89.4613   33.8085   -3.1047 N   0  0  0  0  0  0  0  0  0  0  0  0
  -90.3472   33.4358   -2.7177 H   0  0  0  0  0  0  0  0  0  0  0  0
  -89.3685   35.1515   -3.6568 C   0  0  0  0  0  0  0  0  0  0  0  0
  -88.0237   35.7142   -3.1864 C   0  0  0  0  0  0  0  0  0  0  0  0
  -87.7707   37.0371   -3.9005 C   0  0  0  0  0  0  0  0  0  0  0  0
  -87.4166   36.6532   -5.3449 C   0  0  0  0  0  0  0  0  0  0  0  0
  -88.0690   35.3746   -5.7415 C   0  0  0  0  0  0  0  0  0  0  0  0
  -89.4748   35.2446   -5.1314 C   0  0  0  0  0  0  0  0  0  0  0  0
  -87.8824   37.7417   -6.1918 N   0  0  0  0  0  0  0  0  0  0  0  0
  -86.9793   38.3746   -7.0708 C   0  0  0  0  0  0  0  0  0  0  0  0
  -85.7628   37.9970   -7.1149 O   0  0  0  0  0  0  0  0  0  0  0  0
  -88.8680   38.0525   -6.1577 H   0  0  0  0  0  0  0  0  0  0  0  0
  -87.4241   39.4748   -7.9453 C   0  0  0  0  0  0  0  0  0  0  0  0
  -88.7941   39.5053   -8.4607 C   0  0  0  0  0  0  0  0  0  0  0  0
  -87.7337   38.9830   -9.3735 C   0  0  0  0  0  0  0  0  0  0  0  0
  -87.1428   32.3070   -0.4925 N   0  0  0  0  0  0  0  0  0  0  0  0
  -87.6742   33.0469    0.0151 H   0  0  0  0  0  0  0  0  0  0  0  0
  -85.7427   32.3658   -0.3386 C   0  0  0  0  0  0  0  0  0  0  0  0
  -84.9885   31.4441    0.3994 C   0  0  0  0  0  0  0  0  0  0  0  0
  -83.6269   31.5538    0.5154 C   0  0  0  0  0  0  0  0  0  0  0  0
  -82.9832   32.5961   -0.1086 C   0  0  0  0  0  0  0  0  0  0  0  0
  -83.6757   33.4988   -0.8237 N   0  0  0  0  0  0  0  0  0  0  0  0
  -84.9999   33.3877   -0.9343 C   0  0  0  0  0  0  0  0  0  0  0  0
 16 17  3  0  0  0
 17  7  1  0  0  0
  7  8  1  0  0  0
  8  9  2  0  0  0
  9 10  1  0  0  0
 10 11  1  0  0  0
 11  1  1  0  0  0
  1  2  2  0  0  0
  2  3  1  0  0  0
  3 35  1  0  0  0
 35 37  1  0  0  0
 37 38  2  0  0  0
 38 39  1  0  0  0
 39 40  2  0  0  0
 40 41  1  0  0  0
 41 42  2  0  0  0
  3  4  2  0  0  0
  4 18  1  0  0  0
 18 19  2  0  0  0
 18 20  1  0  0  0
 20 22  1  0  0  0
 22 23  1  0  0  0
 23 24  1  0  0  0
 24 25  1  0  0  0
 25 28  1  0  0  0
 28 29  1  0  0  0
 29 30  2  0  0  0
 29 32  1  0  0  0
 32 33  1  0  0  0
 33 34  1  0  0  0
 25 26  1  0  0  0
 26 27  1  0  0  0
  4  5  1  0  0  0
  5  6  2  0  0  0
 11 12  2  0  0  0
 12 13  1  0  0  0
 13 14  2  0  0  0
 14 15  1  0  0  0
 15  7  2  0  0  0
 14 10  1  0  0  0
  6  1  1  0  0  0
 42 37  1  0  0  0
 27 22  1  0  0  0
 34 32  1  0  0  0
 35 36  1  0  0  0
 20 21  1  0  0  0
 28 31  1  0  0  0
M  END
> <minimizedAffinity>
-9.02630

> <CNNscore>
0.1464903802

> <CNNaffinity>
6.8382596970

> <CNN_VS>
1.0017392635

> <CNNaffinity_variance>
0.1457879841

$$$$
[H]c1nc([H])c(N([H])c2c([H])c(-c3c([H])c([H])c4c([H])c(C#N)c([H])nn34)nc([H])c2C(=O)N([H])[C@]2([H])C([H])([H])C([H])([H])[C@@]([H])(N([H])C(=O)C3([H])C([H])([H])C3([H])[H])C([H])([H])C2([H])[H])c([H])c1[H]


 42 47  0  0  0  0  0  0  0  0999 V2000
  -89.4362   28.3794    0.8957 C   0  0  0  0  0  0  0  0  0  0  0  0
  -88.1836   28.6995    0.4646 C   0  0  0  0  0  0  0  0  0  0  0  0
  -87.8116   29.8552   -0.2165 C   0  0  0  0  0  0  0  0  0  0  0  0
  -88.8372   30.7701   -0.4759 C   0  0  0  0  0  0  0  0  0  0  0  0
  -90.1320   30.4523   -0.0397 C   0  0  0  0  0  0  0  0  0  0  0  0
  -90.3949   29.3149    0.6089 N   0  0  0  0  0  0  0  0  0  0  0  0
  -90.4295   23.2746    0.6681 C   0  0  0  0  0  0  0  0  0  0  0  0
  -90.0450   24.1375   -0.3251 C   0  0  0  0  0  0  0  0  0  0  0  0
  -89.8444   25.4204   -0.0177 N   0  0  0  0  0  0  0  0  0  0  0  0
  -89.9935   25.9214    1.1979 N   0  0  0  0  0  0  0  0  0  0  0  0
  -89.8244   27.1716    1.6119 C   0  0  0  0  0  0  0  0  0  0  0  0
  -90.1132   27.1584    2.9829 C   0  0  0  0  0  0  0  0  0  0  0  0
  -90.4503   25.8783    3.3454 C   0  0  0  0  0  0  0  0  0  0  0  0
  -90.3685   25.1002    2.1914 C   0  0  0  0  0  0  0  0  0  0  0  0
  -90.5926   23.7662    1.9451 C   0  0  0  0  0  0  0  0  0  0  0  0
  -90.8385   20.7840    0.0897 N   0  0  0  0  0  0  0  0  0  0  0  0
  -90.6534   21.8977    0.3518 C   0  0  0  0  0  0  0  0  0  0  0  0
  -88.5835   32.0489   -1.0856 C   0  0  0  0  0  0  0  0  0  0  0  0
  -87.8380   32.8973   -0.4833 O   0  0  0  0  0  0  0  0  0  0  0  0
  -89.1093   32.4410   -2.3310 N   0  0  0  0  0  0  0  0  0  0  0  0
  -89.7110   31.7866   -2.8630 H   0  0  0  0  0  0  0  0  0  0  0  0
  -88.7805   33.7656   -2.8353 C   0  0  0  0  0  0  0  0  0  0  0  0
  -87.5178   33.5971   -3.6860 C   0  0  0  0  0  0  0  0  0  0  0  0
  -87.2397   34.9079   -4.4129 C   0  0  0  0  0  0  0  0  0  0  0  0
  -88.3045   34.9896   -5.5168 C   0  0  0  0  0  0  0  0  0  0  0  0
  -89.5485   34.2710   -5.1243 C   0  0  0  0  0  0  0  0  0  0  0  0
  -89.8437   34.4310   -3.6235 C   0  0  0  0  0  0  0  0  0  0  0  0
  -88.5822   36.4033   -5.7245 N   0  0  0  0  0  0  0  0  0  0  0  0
  -87.8020   37.1382   -6.6410 C   0  0  0  0  0  0  0  0  0  0  0  0
  -86.8567   36.5655   -7.2757 O   0  0  0  0  0  0  0  0  0  0  0  0
  -89.3469   36.8722   -5.2101 H   0  0  0  0  0  0  0  0  0  0  0  0
  -88.0647   38.5694   -6.8772 C   0  0  0  0  0  0  0  0  0  0  0  0
  -86.9690   39.4781   -7.2194 C   0  0  0  0  0  0  0  0  0  0  0  0
  -87.4182   39.4576   -5.7953 C   0  0  0  0  0  0  0  0  0  0  0  0
  -86.5118   29.9888   -0.7065 N   0  0  0  0  0  0  0  0  0  0  0  0
  -86.3030   29.8393   -1.7172 H   0  0  0  0  0  0  0  0  0  0  0  0
  -85.3900   30.2721    0.0991 C   0  0  0  0  0  0  0  0  0  0  0  0
  -84.7149   29.3225    0.8772 C   0  0  0  0  0  0  0  0  0  0  0  0
  -83.6288   29.6578    1.6436 C   0  0  0  0  0  0  0  0  0  0  0  0
  -83.1897   30.9605    1.6498 C   0  0  0  0  0  0  0  0  0  0  0  0
  -83.8144   31.8971    0.9161 N   0  0  0  0  0  0  0  0  0  0  0  0
  -84.8699   31.5663    0.1716 C   0  0  0  0  0  0  0  0  0  0  0  0
 16 17  3  0  0  0
 17  7  1  0  0  0
  7  8  1  0  0  0
  8  9  2  0  0  0
  9 10  1  0  0  0
 10 11  1  0  0  0
 11  1  1  0  0  0
  1  2  2  0  0  0
  2  3  1  0  0  0
  3 35  1  0  0  0
 35 37  1  0  0  0
 37 38  2  0  0  0
 38 39  1  0  0  0
 39 40  2  0  0  0
 40 41  1  0  0  0
 41 42  2  0  0  0
  3  4  2  0  0  0
  4 18  1  0  0  0
 18 19  2  0  0  0
 18 20  1  0  0  0
 20 22  1  0  0  0
 22 23  1  0  0  0
 23 24  1  0  0  0
 24 25  1  0  0  0
 25 28  1  0  0  0
 28 29  1  0  0  0
 29 30  2  0  0  0
 29 32  1  0  0  0
 32 33  1  0  0  0
 33 34  1  0  0  0
 25 26  1  0  0  0
 26 27  1  0  0  0
  4  5  1  0  0  0
  5  6  2  0  0  0
 11 12  2  0  0  0
 12 13  1  0  0  0
 13 14  2  0  0  0
 14 15  1  0  0  0
 15  7  2  0  0  0
 14 10  1  0  0  0
  6  1  1  0  0  0
 42 37  1  0  0  0
 27 22  1  0  0  0
 34 32  1  0  0  0
 35 36  1  0  0  0
 20 21  1  0  0  0
 28 31  1  0  0  0
M  END
> <minimizedAffinity>
-8.80037

> <CNNscore>
0.0551753081

> <CNNaffinity>
6.7244157791

> <CNN_VS>
0.3710217178

> <CNNaffinity_variance>
0.0880729631

$$$$
[H]c1nc([H])c(N([H])c2c([H])c(-c3c([H])c([H])c4c([H])c(C#N)c([H])nn34)nc([H])c2C(=O)N([H])[C@]2([H])C([H])([H])C([H])([H])[C@@]([H])(N([H])C(=O)C3([H])C([H])([H])C3([H])[H])C([H])([H])C2([H])[H])c([H])c1[H]


 42 47  0  0  0  0  0  0  0  0999 V2000
  -88.8022   32.7420   -4.0312 C   0  0  0  0  0  0  0  0  0  0  0  0
  -88.1706   32.8082   -2.8253 C   0  0  0  0  0  0  0  0  0  0  0  0
  -87.9693   31.7561   -1.9362 C   0  0  0  0  0  0  0  0  0  0  0  0
  -88.4704   30.5128   -2.3353 C   0  0  0  0  0  0  0  0  0  0  0  0
  -89.1248   30.4307   -3.5732 C   0  0  0  0  0  0  0  0  0  0  0  0
  -89.2712   31.4982   -4.3622 N   0  0  0  0  0  0  0  0  0  0  0  0
  -87.1238   37.3207   -5.8520 C   0  0  0  0  0  0  0  0  0  0  0  0
  -86.5911   36.5167   -4.8781 C   0  0  0  0  0  0  0  0  0  0  0  0
  -87.2087   35.3711   -4.5836 N   0  0  0  0  0  0  0  0  0  0  0  0
  -88.3153   34.9540   -5.1772 N   0  0  0  0  0  0  0  0  0  0  0  0
  -89.0092   33.8424   -4.9631 C   0  0  0  0  0  0  0  0  0  0  0  0
  -90.0892   33.8931   -5.8543 C   0  0  0  0  0  0  0  0  0  0  0  0
  -90.0003   35.0535   -6.5819 C   0  0  0  0  0  0  0  0  0  0  0  0
  -88.8598   35.7200   -6.1359 C   0  0  0  0  0  0  0  0  0  0  0  0
  -88.2756   36.9134   -6.4893 C   0  0  0  0  0  0  0  0  0  0  0  0
  -85.9517   39.5565   -6.4287 N   0  0  0  0  0  0  0  0  0  0  0  0
  -86.4753   38.5544   -6.1742 C   0  0  0  0  0  0  0  0  0  0  0  0
  -88.2523   29.3181   -1.5628 C   0  0  0  0  0  0  0  0  0  0  0  0
  -87.0677   28.8458   -1.4539 O   0  0  0  0  0  0  0  0  0  0  0  0
  -89.2765   28.6161   -0.8999 N   0  0  0  0  0  0  0  0  0  0  0  0
  -90.2515   28.9629   -0.9494 H   0  0  0  0  0  0  0  0  0  0  0  0
  -88.9240   27.4168   -0.1553 C   0  0  0  0  0  0  0  0  0  0  0  0
  -89.4599   27.6234    1.2649 C   0  0  0  0  0  0  0  0  0  0  0  0
  -89.3084   26.3189    2.0390 C   0  0  0  0  0  0  0  0  0  0  0  0
  -90.3891   25.3866    1.4716 C   0  0  0  0  0  0  0  0  0  0  0  0
  -90.6970   25.7143    0.0519 C   0  0  0  0  0  0  0  0  0  0  0  0
  -89.4352   26.1441   -0.7151 C   0  0  0  0  0  0  0  0  0  0  0  0
  -89.8673   24.0316    1.5754 N   0  0  0  0  0  0  0  0  0  0  0  0
  -90.7207   22.9870    1.9866 C   0  0  0  0  0  0  0  0  0  0  0  0
  -91.9384   23.2338    2.2709 O   0  0  0  0  0  0  0  0  0  0  0  0
  -88.8795   23.8275    1.3475 H   0  0  0  0  0  0  0  0  0  0  0  0
  -90.2221   21.6040    2.0939 C   0  0  0  0  0  0  0  0  0  0  0  0
  -90.9247   20.6244    2.9247 C   0  0  0  0  0  0  0  0  0  0  0  0
  -89.7223   21.2831    3.5168 C   0  0  0  0  0  0  0  0  0  0  0  0
  -87.4151   32.0009   -0.6791 N   0  0  0  0  0  0  0  0  0  0  0  0
  -88.0235   32.1335    0.1574 H   0  0  0  0  0  0  0  0  0  0  0  0
  -86.0329   32.1436   -0.4404 C   0  0  0  0  0  0  0  0  0  0  0  0
  -85.2450   33.1831   -0.9519 C   0  0  0  0  0  0  0  0  0  0  0  0
  -83.9027   33.2689   -0.6868 C   0  0  0  0  0  0  0  0  0  0  0  0
  -83.3129   32.3097    0.1019 C   0  0  0  0  0  0  0  0  0  0  0  0
  -84.0387   31.2984    0.6082 N   0  0  0  0  0  0  0  0  0  0  0  0
  -85.3441   31.2193    0.3482 C   0  0  0  0  0  0  0  0  0  0  0  0
 16 17  3  0  0  0
 17  7  1  0  0  0
  7  8  1  0  0  0
  8  9  2  0  0  0
  9 10  1  0  0  0
 10 11  1  0  0  0
 11  1  1  0  0  0
  1  2  2  0  0  0
  2  3  1  0  0  0
  3 35  1  0  0  0
 35 37  1  0  0  0
 37 38  2  0  0  0
 38 39  1  0  0  0
 39 40  2  0  0  0
 40 41  1  0  0  0
 41 42  2  0  0  0
  3  4  2  0  0  0
  4 18  1  0  0  0
 18 19  2  0  0  0
 18 20  1  0  0  0
 20 22  1  0  0  0
 22 23  1  0  0  0
 23 24  1  0  0  0
 24 25  1  0  0  0
 25 28  1  0  0  0
 28 29  1  0  0  0
 29 30  2  0  0  0
 29 32  1  0  0  0
 32 33  1  0  0  0
 33 34  1  0  0  0
 25 26  1  0  0  0
 26 27  1  0  0  0
  4  5  1  0  0  0
  5  6  2  0  0  0
 11 12  2  0  0  0
 12 13  1  0  0  0
 13 14  2  0  0  0
 14 15  1  0  0  0
 15  7  2  0  0  0
 14 10  1  0  0  0
  6  1  1  0  0  0
 42 37  1  0  0  0
 27 22  1  0  0  0
 34 32  1  0  0  0
 35 36  1  0  0  0
 20 21  1  0  0  0
 28 31  1  0  0  0
M  END
> <minimizedAffinity>
-8.68299

> <CNNscore>
0.0476962142

> <CNNaffinity>
6.5710120201

> <CNN_VS>
0.3134123981

> <CNNaffinity_variance>
0.1994371116

$$$$
[H]c1nc([H])c(N([H])c2c([H])c(-c3c([H])c([H])c4c([H])c(C#N)c([H])nn34)nc([H])c2C(=O)N([H])[C@]2([H])C([H])([H])C([H])([H])[C@@]([H])(N([H])C(=O)C3([H])C([H])([H])C3([H])[H])C([H])([H])C2([H])[H])c([H])c1[H]


 42 47  0  0  0  0  0  0  0  0999 V2000
  -94.1669   25.8024   -4.4652 C   0  0  0  0  0  0  0  0  0  0  0  0
  -94.2799   25.5109   -3.1386 C   0  0  0  0  0  0  0  0  0  0  0  0
  -93.4390   25.9487   -2.1193 C   0  0  0  0  0  0  0  0  0  0  0  0
  -92.3771   26.7700   -2.5117 C   0  0  0  0  0  0  0  0  0  0  0  0
  -92.2474   27.0763   -3.8744 C   0  0  0  0  0  0  0  0  0  0  0  0
  -93.1061   26.6084   -4.7840 N   0  0  0  0  0  0  0  0  0  0  0  0
  -96.5292   21.7872   -6.7878 C   0  0  0  0  0  0  0  0  0  0  0  0
  -95.7031   21.8044   -5.6941 C   0  0  0  0  0  0  0  0  0  0  0  0
  -95.2149   22.9743   -5.2776 N   0  0  0  0  0  0  0  0  0  0  0  0
  -95.4791   24.1341   -5.8574 N   0  0  0  0  0  0  0  0  0  0  0  0
  -95.0493   25.3473   -5.5312 C   0  0  0  0  0  0  0  0  0  0  0  0
  -95.6240   26.2166   -6.4679 C   0  0  0  0  0  0  0  0  0  0  0  0
  -96.3900   25.4788   -7.3353 C   0  0  0  0  0  0  0  0  0  0  0  0
  -96.2859   24.1487   -6.9302 C   0  0  0  0  0  0  0  0  0  0  0  0
  -96.8238   22.9791   -7.4131 C   0  0  0  0  0  0  0  0  0  0  0  0
  -97.4749   19.5256   -7.6219 N   0  0  0  0  0  0  0  0  0  0  0  0
  -97.0553   20.5393   -7.2486 C   0  0  0  0  0  0  0  0  0  0  0  0
  -91.4854   27.3736   -1.5567 C   0  0  0  0  0  0  0  0  0  0  0  0
  -91.8341   28.4531   -0.9639 O   0  0  0  0  0  0  0  0  0  0  0  0
  -90.2255   26.8450   -1.2186 N   0  0  0  0  0  0  0  0  0  0  0  0
  -89.9008   25.9675   -1.6636 H   0  0  0  0  0  0  0  0  0  0  0  0
  -89.4164   27.5556   -0.2401 C   0  0  0  0  0  0  0  0  0  0  0  0
  -89.0932   26.5428    0.8628 C   0  0  0  0  0  0  0  0  0  0  0  0
  -88.0758   27.1634    1.8133 C   0  0  0  0  0  0  0  0  0  0  0  0
  -86.7484   27.1594    1.0405 C   0  0  0  0  0  0  0  0  0  0  0  0
  -86.9762   27.2480   -0.4285 C   0  0  0  0  0  0  0  0  0  0  0  0
  -88.1686   28.1605   -0.7613 C   0  0  0  0  0  0  0  0  0  0  0  0
  -85.9921   28.3132    1.5048 N   0  0  0  0  0  0  0  0  0  0  0  0
  -84.7901   28.1170    2.2156 C   0  0  0  0  0  0  0  0  0  0  0  0
  -84.3763   26.9352    2.4534 O   0  0  0  0  0  0  0  0  0  0  0  0
  -86.3253   29.2737    1.3157 H   0  0  0  0  0  0  0  0  0  0  0  0
  -83.9994   29.2664    2.6918 C   0  0  0  0  0  0  0  0  0  0  0  0
  -83.9899   30.5227    1.9402 C   0  0  0  0  0  0  0  0  0  0  0  0
  -82.8355   29.5975    1.7362 C   0  0  0  0  0  0  0  0  0  0  0  0
  -93.6059   25.4653   -0.8209 N   0  0  0  0  0  0  0  0  0  0  0  0
  -94.0127   26.0682   -0.0735 H   0  0  0  0  0  0  0  0  0  0  0  0
  -93.2022   24.1821   -0.3987 C   0  0  0  0  0  0  0  0  0  0  0  0
  -91.9815   23.5848   -0.7396 C   0  0  0  0  0  0  0  0  0  0  0  0
  -91.6438   22.3310   -0.2998 C   0  0  0  0  0  0  0  0  0  0  0  0
  -92.5260   21.6402    0.4968 C   0  0  0  0  0  0  0  0  0  0  0  0
  -93.7059   22.1827    0.8422 N   0  0  0  0  0  0  0  0  0  0  0  0
  -94.0299   23.4028    0.4127 C   0  0  0  0  0  0  0  0  0  0  0  0
 16 17  3  0  0  0
 17  7  1  0  0  0
  7  8  1  0  0  0
  8  9  2  0  0  0
  9 10  1  0  0  0
 10 11  1  0  0  0
 11  1  1  0  0  0
  1  2  2  0  0  0
  2  3  1  0  0  0
  3 35  1  0  0  0
 35 37  1  0  0  0
 37 38  2  0  0  0
 38 39  1  0  0  0
 39 40  2  0  0  0
 40 41  1  0  0  0
 41 42  2  0  0  0
  3  4  2  0  0  0
  4 18  1  0  0  0
 18 19  2  0  0  0
 18 20  1  0  0  0
 20 22  1  0  0  0
 22 23  1  0  0  0
 23 24  1  0  0  0
 24 25  1  0  0  0
 25 28  1  0  0  0
 28 29  1  0  0  0
 29 30  2  0  0  0
 29 32  1  0  0  0
 32 33  1  0  0  0
 33 34  1  0  0  0
 25 26  1  0  0  0
 26 27  1  0  0  0
  4  5  1  0  0  0
  5  6  2  0  0  0
 11 12  2  0  0  0
 12 13  1  0  0  0
 13 14  2  0  0  0
 14 15  1  0  0  0
 15  7  2  0  0  0
 14 10  1  0  0  0
  6  1  1  0  0  0
 42 37  1  0  0  0
 27 22  1  0  0  0
 34 32  1  0  0  0
 35 36  1  0  0  0
 20 21  1  0  0  0
 28 31  1  0  0  0
M  END
> <minimizedAffinity>
-7.19675

> <CNNscore>
0.0468165204

> <CNNaffinity>
6.1899557114

> <CNN_VS>
0.2897921801

> <CNNaffinity_variance>
0.1960436553

$$$$
[H]c1nc([H])c(N([H])c2c([H])c(-c3c([H])c([H])c4c([H])c(C#N)c([H])nn34)nc([H])c2C(=O)N([H])[C@]2([H])C([H])([H])C([H])([H])[C@@]([H])(N([H])C(=O)C3([H])C([H])([H])C3([H])[H])C([H])([H])C2([H])[H])c([H])c1[H]


 42 47  0  0  0  0  0  0  0  0999 V2000
  -88.2127   29.3746   -0.3873 C   0  0  0  0  0  0  0  0  0  0  0  0
  -88.0302   28.3626    0.5071 C   0  0  0  0  0  0  0  0  0  0  0  0
  -88.8044   27.2117    0.6256 C   0  0  0  0  0  0  0  0  0  0  0  0
  -89.8719   27.0967   -0.2706 C   0  0  0  0  0  0  0  0  0  0  0  0
  -90.0728   28.1322   -1.1952 C   0  0  0  0  0  0  0  0  0  0  0  0
  -89.2753   29.2027   -1.2346 N   0  0  0  0  0  0  0  0  0  0  0  0
  -87.6671   34.0949   -2.5129 C   0  0  0  0  0  0  0  0  0  0  0  0
  -88.6827   33.1845   -2.6497 C   0  0  0  0  0  0  0  0  0  0  0  0
  -88.5982   32.0261   -1.9927 N   0  0  0  0  0  0  0  0  0  0  0  0
  -87.5863   31.6938   -1.2073 N   0  0  0  0  0  0  0  0  0  0  0  0
  -87.4001   30.5770   -0.5137 C   0  0  0  0  0  0  0  0  0  0  0  0
  -86.1723   30.7393    0.1417 C   0  0  0  0  0  0  0  0  0  0  0  0
  -85.6601   31.9688   -0.1895 C   0  0  0  0  0  0  0  0  0  0  0  0
  -86.5774   32.5658   -1.0531 C   0  0  0  0  0  0  0  0  0  0  0  0
  -86.5997   33.7783   -1.7011 C   0  0  0  0  0  0  0  0  0  0  0  0
  -87.7957   36.3453   -3.7874 N   0  0  0  0  0  0  0  0  0  0  0  0
  -87.7419   35.3385   -3.2158 C   0  0  0  0  0  0  0  0  0  0  0  0
  -90.6974   25.9190   -0.3277 C   0  0  0  0  0  0  0  0  0  0  0  0
  -91.0663   25.3549    0.7604 O   0  0  0  0  0  0  0  0  0  0  0  0
  -91.1406   25.3306   -1.5270 N   0  0  0  0  0  0  0  0  0  0  0  0
  -90.8771   25.7546   -2.4348 H   0  0  0  0  0  0  0  0  0  0  0  0
  -91.9677   24.1361   -1.4478 C   0  0  0  0  0  0  0  0  0  0  0  0
  -93.4205   24.6217   -1.4562 C   0  0  0  0  0  0  0  0  0  0  0  0
  -94.3394   23.4123   -1.5860 C   0  0  0  0  0  0  0  0  0  0  0  0
  -94.1960   22.9527   -3.0445 C   0  0  0  0  0  0  0  0  0  0  0  0
  -92.8522   23.2911   -3.5899 C   0  0  0  0  0  0  0  0  0  0  0  0
  -91.7549   23.1395   -2.5230 C   0  0  0  0  0  0  0  0  0  0  0  0
  -94.3943   21.5107   -3.0488 N   0  0  0  0  0  0  0  0  0  0  0  0
  -95.7036   20.9885   -3.0916 C   0  0  0  0  0  0  0  0  0  0  0  0
  -96.7037   21.7782   -3.1194 O   0  0  0  0  0  0  0  0  0  0  0  0
  -93.5857   20.8666   -3.0243 H   0  0  0  0  0  0  0  0  0  0  0  0
  -95.9348   19.5328   -3.1042 C   0  0  0  0  0  0  0  0  0  0  0  0
  -96.6906   18.9110   -4.1930 C   0  0  0  0  0  0  0  0  0  0  0  0
  -97.4265   19.1872   -2.9232 C   0  0  0  0  0  0  0  0  0  0  0  0
  -88.5731   26.3199    1.6738 N   0  0  0  0  0  0  0  0  0  0  0  0
  -88.0513   25.4311    1.5150 H   0  0  0  0  0  0  0  0  0  0  0  0
  -89.0551   26.5027    2.9861 C   0  0  0  0  0  0  0  0  0  0  0  0
  -89.5194   27.7224    3.4955 C   0  0  0  0  0  0  0  0  0  0  0  0
  -89.9753   27.8401    4.7831 C   0  0  0  0  0  0  0  0  0  0  0  0
  -89.9771   26.7323    5.5971 C   0  0  0  0  0  0  0  0  0  0  0  0
  -89.5378   25.5469    5.1412 N   0  0  0  0  0  0  0  0  0  0  0  0
  -89.0960   25.4370    3.8880 C   0  0  0  0  0  0  0  0  0  0  0  0
 16 17  3  0  0  0
 17  7  1  0  0  0
  7  8  1  0  0  0
  8  9  2  0  0  0
  9 10  1  0  0  0
 10 11  1  0  0  0
 11  1  1  0  0  0
  1  2  2  0  0  0
  2  3  1  0  0  0
  3 35  1  0  0  0
 35 37  1  0  0  0
 37 38  2  0  0  0
 38 39  1  0  0  0
 39 40  2  0  0  0
 40 41  1  0  0  0
 41 42  2  0  0  0
  3  4  2  0  0  0
  4 18  1  0  0  0
 18 19  2  0  0  0
 18 20  1  0  0  0
 20 22  1  0  0  0
 22 23  1  0  0  0
 23 24  1  0  0  0
 24 25  1  0  0  0
 25 28  1  0  0  0
 28 29  1  0  0  0
 29 30  2  0  0  0
 29 32  1  0  0  0
 32 33  1  0  0  0
 33 34  1  0  0  0
 25 26  1  0  0  0
 26 27  1  0  0  0
  4  5  1  0  0  0
  5  6  2  0  0  0
 11 12  2  0  0  0
 12 13  1  0  0  0
 13 14  2  0  0  0
 14 15  1  0  0  0
 15  7  2  0  0  0
 14 10  1  0  0  0
  6  1  1  0  0  0
 42 37  1  0  0  0
 27 22  1  0  0  0
 34 32  1  0  0  0
 35 36  1  0  0  0
 20 21  1  0  0  0
 28 31  1  0  0  0
M  END
> <minimizedAffinity>
-7.58521

> <CNNscore>
0.0416399688

> <CNNaffinity>
6.1559014320

> <CNN_VS>
0.2563315332

> <CNNaffinity_variance>
0.1641480029

$$$$
[H]c1c([H])c([H])c(N2C(N3C([H])([H])C([H])([H])C([H])([H])C([H])([H])C3([H])[H])=Nc3c([H])c([H])c([H])c([H])c3C2([H])C([H])([H])C(=O)N([H])C([H])([H])c2c([H])c([H])c([H])c([H])c2[H])c([H])c1[H]


 34 38  0  0  0  0  0  0  0  0999 V2000
  -87.0179   28.9720   -0.2803 C   0  0  0  0  0  0  0  0  0  0  0  0
  -86.1980   29.6893    0.7013 C   0  0  0  0  0  0  0  0  0  0  0  0
  -85.6569   29.1153    1.8337 C   0  0  0  0  0  0  0  0  0  0  0  0
  -84.7791   29.8591    2.6176 C   0  0  0  0  0  0  0  0  0  0  0  0
  -84.4343   31.1503    2.3004 C   0  0  0  0  0  0  0  0  0  0  0  0
  -84.9681   31.7329    1.1827 C   0  0  0  0  0  0  0  0  0  0  0  0
  -85.8617   30.9933    0.3787 C   0  0  0  0  0  0  0  0  0  0  0  0
  -86.5469   31.6918   -0.6560 N   0  0  0  0  0  0  0  0  0  0  0  0
  -87.5167   31.1180   -1.3074 C   0  0  0  0  0  0  0  0  0  0  0  0
  -87.9532   29.8171   -0.9455 N   0  0  0  0  0  0  0  0  0  0  0  0
  -88.1562   31.8707   -2.3375 N   0  0  0  0  0  0  0  0  0  0  0  0
  -89.0609   32.9149   -1.9615 C   0  0  0  0  0  0  0  0  0  0  0  0
  -88.9124   34.1264   -2.9011 C   0  0  0  0  0  0  0  0  0  0  0  0
  -89.1385   33.5901   -4.2968 C   0  0  0  0  0  0  0  0  0  0  0  0
  -88.0104   32.6852   -4.6489 C   0  0  0  0  0  0  0  0  0  0  0  0
  -87.8333   31.5268   -3.7015 C   0  0  0  0  0  0  0  0  0  0  0  0
  -89.2698   29.3976   -1.2407 C   0  0  0  0  0  0  0  0  0  0  0  0
  -90.3630   29.7763   -0.4941 C   0  0  0  0  0  0  0  0  0  0  0  0
  -91.6275   29.3425   -0.8125 C   0  0  0  0  0  0  0  0  0  0  0  0
  -91.8695   28.5147   -1.8831 C   0  0  0  0  0  0  0  0  0  0  0  0
  -90.7723   28.1384   -2.6272 C   0  0  0  0  0  0  0  0  0  0  0  0
  -89.5076   28.5595   -2.3261 C   0  0  0  0  0  0  0  0  0  0  0  0
  -87.4264   27.5872   -0.0020 C   0  0  0  0  0  0  0  0  0  0  0  0
  -88.6946   28.1964    1.9192 O   0  0  0  0  0  0  0  0  0  0  0  0
  -88.5711   27.4403    0.9210 C   0  0  0  0  0  0  0  0  0  0  0  0
  -89.5759   26.4467    0.7248 N   0  0  0  0  0  0  0  0  0  0  0  0
  -89.5393   25.7806   -0.0855 H   0  0  0  0  0  0  0  0  0  0  0  0
  -90.6761   26.3357    1.6495 C   0  0  0  0  0  0  0  0  0  0  0  0
  -90.2371   26.0828    3.0418 C   0  0  0  0  0  0  0  0  0  0  0  0
  -89.4744   24.9758    3.3156 C   0  0  0  0  0  0  0  0  0  0  0  0
  -89.0343   24.6948    4.6076 C   0  0  0  0  0  0  0  0  0  0  0  0
  -89.3688   25.5450    5.6432 C   0  0  0  0  0  0  0  0  0  0  0  0
  -90.1434   26.6677    5.3607 C   0  0  0  0  0  0  0  0  0  0  0  0
  -90.5746   26.9332    4.0639 C   0  0  0  0  0  0  0  0  0  0  0  0
 24 25  2  0  0  0
 25 23  1  0  0  0
 23  1  1  0  0  0
  1  2  1  0  0  0
  2  3  2  0  0  0
  3  4  1  0  0  0
  4  5  2  0  0  0
  5  6  1  0  0  0
  6  7  2  0  0  0
  7  8  1  0  0  0
  8  9  2  0  0  0
  9 11  1  0  0  0
 11 12  1  0  0  0
 12 13  1  0  0  0
 13 14  1  0  0  0
 14 15  1  0  0  0
 15 16  1  0  0  0
  9 10  1  0  0  0
 10 17  1  0  0  0
 17 18  2  0  0  0
 18 19  1  0  0  0
 19 20  2  0  0  0
 20 21  1  0  0  0
 21 22  2  0  0  0
 25 26  1  0  0  0
 26 28  1  0  0  0
 28 29  1  0  0  0
 29 30  2  0  0  0
 30 31  1  0  0  0
 31 32  2  0  0  0
 32 33  1  0  0  0
 33 34  2  0  0  0
 10  1  1  0  0  0
 22 17  1  0  0  0
 34 29  1  0  0  0
  7  2  1  0  0  0
 16 11  1  0  0  0
 26 27  1  0  0  0
M  END
> <minimizedAffinity>
-8.99253

> <CNNscore>
0.3742894530

> <CNNaffinity>
6.7587523460

> <CNN_VS>
2.5297296047

> <CNNaffinity_variance>
0.1100021154

$$$$
[H]c1c([H])c([H])c(N2C(N3C([H])([H])C([H])([H])C([H])([H])C([H])([H])C3([H])[H])=Nc3c([H])c([H])c([H])c([H])c3C2([H])C([H])([H])C(=O)N([H])C([H])([H])c2c([H])c([H])c([H])c([H])c2[H])c([H])c1[H]


 34 38  0  0  0  0  0  0  0  0999 V2000
  -86.6920   31.9913   -0.1850 C   0  0  0  0  0  0  0  0  0  0  0  0
  -85.3143   31.6008    0.1311 C   0  0  0  0  0  0  0  0  0  0  0  0
  -84.2478   32.4752    0.1810 C   0  0  0  0  0  0  0  0  0  0  0  0
  -83.0133   32.0141    0.6301 C   0  0  0  0  0  0  0  0  0  0  0  0
  -82.8214   30.7125    1.0247 C   0  0  0  0  0  0  0  0  0  0  0  0
  -83.8698   29.8340    0.9752 C   0  0  0  0  0  0  0  0  0  0  0  0
  -85.1273   30.2849    0.5198 C   0  0  0  0  0  0  0  0  0  0  0  0
  -86.1348   29.3042    0.2937 N   0  0  0  0  0  0  0  0  0  0  0  0
  -87.2471   29.6275   -0.3001 C   0  0  0  0  0  0  0  0  0  0  0  0
  -87.4395   30.9430   -0.7963 N   0  0  0  0  0  0  0  0  0  0  0  0
  -88.2180   28.5988   -0.4884 N   0  0  0  0  0  0  0  0  0  0  0  0
  -89.3449   28.5510    0.3937 C   0  0  0  0  0  0  0  0  0  0  0  0
  -90.6209   28.1614   -0.3762 C   0  0  0  0  0  0  0  0  0  0  0  0
  -90.3070   26.8417   -1.0445 C   0  0  0  0  0  0  0  0  0  0  0  0
  -89.2758   27.0712   -2.0930 C   0  0  0  0  0  0  0  0  0  0  0  0
  -87.9961   27.6746   -1.5745 C   0  0  0  0  0  0  0  0  0  0  0  0
  -88.3407   31.1811   -1.8583 C   0  0  0  0  0  0  0  0  0  0  0  0
  -89.6075   31.6859   -1.6683 C   0  0  0  0  0  0  0  0  0  0  0  0
  -90.4554   31.8992   -2.7285 C   0  0  0  0  0  0  0  0  0  0  0  0
  -90.0902   31.6233   -4.0249 C   0  0  0  0  0  0  0  0  0  0  0  0
  -88.8214   31.1182   -4.2099 C   0  0  0  0  0  0  0  0  0  0  0  0
  -87.9643   30.8994   -3.1683 C   0  0  0  0  0  0  0  0  0  0  0  0
  -86.9678   33.3691   -0.6181 C   0  0  0  0  0  0  0  0  0  0  0  0
  -85.5628   33.2420   -2.5366 O   0  0  0  0  0  0  0  0  0  0  0  0
  -86.6312   33.6675   -2.0258 C   0  0  0  0  0  0  0  0  0  0  0  0
  -87.4916   34.4420   -2.8595 N   0  0  0  0  0  0  0  0  0  0  0  0
  -88.3992   34.8302   -2.5027 H   0  0  0  0  0  0  0  0  0  0  0  0
  -87.1256   34.7116   -4.2274 C   0  0  0  0  0  0  0  0  0  0  0  0
  -88.2568   35.2187   -5.0388 C   0  0  0  0  0  0  0  0  0  0  0  0
  -89.5359   35.0995   -4.5574 C   0  0  0  0  0  0  0  0  0  0  0  0
  -90.6334   35.5627   -5.2805 C   0  0  0  0  0  0  0  0  0  0  0  0
  -90.4386   36.1571   -6.5117 C   0  0  0  0  0  0  0  0  0  0  0  0
  -89.1382   36.2759   -6.9967 C   0  0  0  0  0  0  0  0  0  0  0  0
  -88.0531   35.8075   -6.2608 C   0  0  0  0  0  0  0  0  0  0  0  0
 24 25  2  0  0  0
 25 23  1  0  0  0
 23  1  1  0  0  0
  1  2  1  0  0  0
  2  3  2  0  0  0
  3  4  1  0  0  0
  4  5  2  0  0  0
  5  6  1  0  0  0
  6  7  2  0  0  0
  7  8  1  0  0  0
  8  9  2  0  0  0
  9 11  1  0  0  0
 11 12  1  0  0  0
 12 13  1  0  0  0
 13 14  1  0  0  0
 14 15  1  0  0  0
 15 16  1  0  0  0
  9 10  1  0  0  0
 10 17  1  0  0  0
 17 18  2  0  0  0
 18 19  1  0  0  0
 19 20  2  0  0  0
 20 21  1  0  0  0
 21 22  2  0  0  0
 25 26  1  0  0  0
 26 28  1  0  0  0
 28 29  1  0  0  0
 29 30  2  0  0  0
 30 31  1  0  0  0
 31 32  2  0  0  0
 32 33  1  0  0  0
 33 34  2  0  0  0
 10  1  1  0  0  0
 22 17  1  0  0  0
 34 29  1  0  0  0
  7  2  1  0  0  0
 16 11  1  0  0  0
 26 27  1  0  0  0
M  END
> <minimizedAffinity>
-8.76022

> <CNNscore>
0.2353768647

> <CNNaffinity>
6.3828439713

> <CNN_VS>
1.5023738146

> <CNNaffinity_variance>
0.3442356288

$$$$
[H]c1c([H])c([H])c(N2C(N3C([H])([H])C([H])([H])C([H])([H])C([H])([H])C3([H])[H])=Nc3c([H])c([H])c([H])c([H])c3C2([H])C([H])([H])C(=O)N([H])C([H])([H])c2c([H])c([H])c([H])c([H])c2[H])c([H])c1[H]


 34 38  0  0  0  0  0  0  0  0999 V2000
  -86.6917   28.9977   -0.4603 C   0  0  0  0  0  0  0  0  0  0  0  0
  -85.8724   29.7177    0.5199 C   0  0  0  0  0  0  0  0  0  0  0  0
  -85.2244   29.1217    1.5827 C   0  0  0  0  0  0  0  0  0  0  0  0
  -84.3610   29.8843    2.3644 C   0  0  0  0  0  0  0  0  0  0  0  0
  -84.1337   31.2153    2.1124 C   0  0  0  0  0  0  0  0  0  0  0  0
  -84.7741   31.8196    1.0645 C   0  0  0  0  0  0  0  0  0  0  0  0
  -85.6547   31.0611    0.2638 C   0  0  0  0  0  0  0  0  0  0  0  0
  -86.4498   31.7637   -0.6860 N   0  0  0  0  0  0  0  0  0  0  0  0
  -87.4100   31.1551   -1.3199 C   0  0  0  0  0  0  0  0  0  0  0  0
  -87.7252   29.8046   -1.0191 N   0  0  0  0  0  0  0  0  0  0  0  0
  -88.1633   31.9151   -2.2640 N   0  0  0  0  0  0  0  0  0  0  0  0
  -89.0517   32.9265   -1.7761 C   0  0  0  0  0  0  0  0  0  0  0  0
  -89.0229   34.1632   -2.6939 C   0  0  0  0  0  0  0  0  0  0  0  0
  -89.3702   33.6542   -4.0749 C   0  0  0  0  0  0  0  0  0  0  0  0
  -88.2605   32.7872   -4.5569 C   0  0  0  0  0  0  0  0  0  0  0  0
  -87.9657   31.6118   -3.6612 C   0  0  0  0  0  0  0  0  0  0  0  0
  -89.0214   29.3009   -1.2696 C   0  0  0  0  0  0  0  0  0  0  0  0
  -89.3135   28.4771   -2.3335 C   0  0  0  0  0  0  0  0  0  0  0  0
  -90.5892   28.0117   -2.5444 C   0  0  0  0  0  0  0  0  0  0  0  0
  -91.6346   28.3392   -1.7137 C   0  0  0  0  0  0  0  0  0  0  0  0
  -91.3373   29.1639   -0.6504 C   0  0  0  0  0  0  0  0  0  0  0  0
  -90.0751   29.6366   -0.4245 C   0  0  0  0  0  0  0  0  0  0  0  0
  -86.9776   27.5709   -0.2496 C   0  0  0  0  0  0  0  0  0  0  0  0
  -86.6421   26.4878    1.8444 O   0  0  0  0  0  0  0  0  0  0  0  0
  -87.3835   27.2046    1.1233 C   0  0  0  0  0  0  0  0  0  0  0  0
  -88.6191   27.6416    1.6868 N   0  0  0  0  0  0  0  0  0  0  0  0
  -89.2885   28.2418    1.1451 H   0  0  0  0  0  0  0  0  0  0  0  0
  -88.9784   27.2608    3.0299 C   0  0  0  0  0  0  0  0  0  0  0  0
  -89.6076   25.9215    3.1018 C   0  0  0  0  0  0  0  0  0  0  0  0
  -90.5017   25.5458    2.1315 C   0  0  0  0  0  0  0  0  0  0  0  0
  -91.1185   24.2964    2.1524 C   0  0  0  0  0  0  0  0  0  0  0  0
  -90.8292   23.4088    3.1701 C   0  0  0  0  0  0  0  0  0  0  0  0
  -89.9209   23.7944    4.1532 C   0  0  0  0  0  0  0  0  0  0  0  0
  -89.3139   25.0467    4.1168 C   0  0  0  0  0  0  0  0  0  0  0  0
 24 25  2  0  0  0
 25 23  1  0  0  0
 23  1  1  0  0  0
  1  2  1  0  0  0
  2  3  2  0  0  0
  3  4  1  0  0  0
  4  5  2  0  0  0
  5  6  1  0  0  0
  6  7  2  0  0  0
  7  8  1  0  0  0
  8  9  2  0  0  0
  9 11  1  0  0  0
 11 12  1  0  0  0
 12 13  1  0  0  0
 13 14  1  0  0  0
 14 15  1  0  0  0
 15 16  1  0  0  0
  9 10  1  0  0  0
 10 17  1  0  0  0
 17 18  2  0  0  0
 18 19  1  0  0  0
 19 20  2  0  0  0
 20 21  1  0  0  0
 21 22  2  0  0  0
 25 26  1  0  0  0
 26 28  1  0  0  0
 28 29  1  0  0  0
 29 30  2  0  0  0
 30 31  1  0  0  0
 31 32  2  0  0  0
 32 33  1  0  0  0
 33 34  2  0  0  0
 10  1  1  0  0  0
 22 17  1  0  0  0
 34 29  1  0  0  0
  7  2  1  0  0  0
 16 11  1  0  0  0
 26 27  1  0  0  0
M  END
> <minimizedAffinity>
-9.24349

> <CNNscore>
0.1276128590

> <CNNaffinity>
6.4564146996

> <CNN_VS>
0.8239215612

> <CNNaffinity_variance>
0.2562061548

$$$$
[H]c1c([H])c([H])c(N2C(N3C([H])([H])C([H])([H])C([H])([H])C([H])([H])C3([H])[H])=Nc3c([H])c([H])c([H])c([H])c3C2([H])C([H])([H])C(=O)N([H])C([H])([H])c2c([H])c([H])c([H])c([H])c2[H])c([H])c1[H]


 34 38  0  0  0  0  0  0  0  0999 V2000
  -88.6986   31.2892   -0.4834 C   0  0  0  0  0  0  0  0  0  0  0  0
  -88.2275   32.4072   -1.3072 C   0  0  0  0  0  0  0  0  0  0  0  0
  -89.0264   33.1332   -2.1670 C   0  0  0  0  0  0  0  0  0  0  0  0
  -88.5012   34.2617   -2.7905 C   0  0  0  0  0  0  0  0  0  0  0  0
  -87.2090   34.6764   -2.5783 C   0  0  0  0  0  0  0  0  0  0  0  0
  -86.4047   33.9622   -1.7318 C   0  0  0  0  0  0  0  0  0  0  0  0
  -86.9211   32.8140   -1.0939 C   0  0  0  0  0  0  0  0  0  0  0  0
  -86.0040   31.9889   -0.3824 N   0  0  0  0  0  0  0  0  0  0  0  0
  -86.3766   30.8255    0.0668 C   0  0  0  0  0  0  0  0  0  0  0  0
  -87.6780   30.3324   -0.2107 N   0  0  0  0  0  0  0  0  0  0  0  0
  -85.4109   30.0523    0.7781 N   0  0  0  0  0  0  0  0  0  0  0  0
  -84.0688   30.0074    0.2810 C   0  0  0  0  0  0  0  0  0  0  0  0
  -83.0583   30.0305    1.4433 C   0  0  0  0  0  0  0  0  0  0  0  0
  -83.4261   28.8597    2.3268 C   0  0  0  0  0  0  0  0  0  0  0  0
  -84.7473   29.1328    2.9556 C   0  0  0  0  0  0  0  0  0  0  0  0
  -85.8603   29.3702    1.9679 C   0  0  0  0  0  0  0  0  0  0  0  0
  -87.9293   28.9419   -0.2140 C   0  0  0  0  0  0  0  0  0  0  0  0
  -88.6933   28.3154    0.7449 C   0  0  0  0  0  0  0  0  0  0  0  0
  -88.9105   26.9589    0.7080 C   0  0  0  0  0  0  0  0  0  0  0  0
  -88.3823   26.1596   -0.2781 C   0  0  0  0  0  0  0  0  0  0  0  0
  -87.6183   26.7912   -1.2355 C   0  0  0  0  0  0  0  0  0  0  0  0
  -87.3914   28.1386   -1.2154 C   0  0  0  0  0  0  0  0  0  0  0  0
  -90.0707   30.7922   -0.6620 C   0  0  0  0  0  0  0  0  0  0  0  0
  -89.9347   29.8846   -2.8594 O   0  0  0  0  0  0  0  0  0  0  0  0
  -90.5187   30.6660   -2.0646 C   0  0  0  0  0  0  0  0  0  0  0  0
  -91.6201   31.4152   -2.5752 N   0  0  0  0  0  0  0  0  0  0  0  0
  -92.1554   32.0865   -1.9713 H   0  0  0  0  0  0  0  0  0  0  0  0
  -92.0247   31.2639   -3.9505 C   0  0  0  0  0  0  0  0  0  0  0  0
  -91.7829   32.4804   -4.7608 C   0  0  0  0  0  0  0  0  0  0  0  0
  -92.7850   33.4075   -4.8971 C   0  0  0  0  0  0  0  0  0  0  0  0
  -92.6070   34.5690   -5.6461 C   0  0  0  0  0  0  0  0  0  0  0  0
  -91.3968   34.8009   -6.2696 C   0  0  0  0  0  0  0  0  0  0  0  0
  -90.3822   33.8570   -6.1287 C   0  0  0  0  0  0  0  0  0  0  0  0
  -90.5773   32.7019   -5.3765 C   0  0  0  0  0  0  0  0  0  0  0  0
 24 25  2  0  0  0
 25 23  1  0  0  0
 23  1  1  0  0  0
  1  2  1  0  0  0
  2  3  2  0  0  0
  3  4  1  0  0  0
  4  5  2  0  0  0
  5  6  1  0  0  0
  6  7  2  0  0  0
  7  8  1  0  0  0
  8  9  2  0  0  0
  9 11  1  0  0  0
 11 12  1  0  0  0
 12 13  1  0  0  0
 13 14  1  0  0  0
 14 15  1  0  0  0
 15 16  1  0  0  0
  9 10  1  0  0  0
 10 17  1  0  0  0
 17 18  2  0  0  0
 18 19  1  0  0  0
 19 20  2  0  0  0
 20 21  1  0  0  0
 21 22  2  0  0  0
 25 26  1  0  0  0
 26 28  1  0  0  0
 28 29  1  0  0  0
 29 30  2  0  0  0
 30 31  1  0  0  0
 31 32  2  0  0  0
 32 33  1  0  0  0
 33 34  2  0  0  0
 10  1  1  0  0  0
 22 17  1  0  0  0
 34 29  1  0  0  0
  7  2  1  0  0  0
 16 11  1  0  0  0
 26 27  1  0  0  0
M  END
> <minimizedAffinity>
-9.03700

> <CNNscore>
0.1133414283

> <CNNaffinity>
6.1604166031

> <CNN_VS>
0.6982304454

> <CNNaffinity_variance>
0.4115710258

$$$$
[H]c1c([H])c([H])c(N2C(N3C([H])([H])C([H])([H])C([H])([H])C([H])([H])C3([H])[H])=Nc3c([H])c([H])c([H])c([H])c3C2([H])C([H])([H])C(=O)N([H])C([H])([H])c2c([H])c([H])c([H])c([H])c2[H])c([H])c1[H]


 34 38  0  0  0  0  0  0  0  0999 V2000
  -88.7802   31.0630   -0.4720 C   0  0  0  0  0  0  0  0  0  0  0  0
  -88.3715   32.1949   -1.3099 C   0  0  0  0  0  0  0  0  0  0  0  0
  -89.2092   32.8652   -2.1779 C   0  0  0  0  0  0  0  0  0  0  0  0
  -88.7470   34.0131   -2.8158 C   0  0  0  0  0  0  0  0  0  0  0  0
  -87.4796   34.5009   -2.6097 C   0  0  0  0  0  0  0  0  0  0  0  0
  -86.6371   33.8425   -1.7551 C   0  0  0  0  0  0  0  0  0  0  0  0
  -87.0894   32.6757   -1.1026 C   0  0  0  0  0  0  0  0  0  0  0  0
  -86.1283   31.9111   -0.3817 N   0  0  0  0  0  0  0  0  0  0  0  0
  -86.4362   30.7346    0.0821 C   0  0  0  0  0  0  0  0  0  0  0  0
  -87.7085   30.1672   -0.1883 N   0  0  0  0  0  0  0  0  0  0  0  0
  -85.4294   30.0246    0.8021 N   0  0  0  0  0  0  0  0  0  0  0  0
  -84.0957   30.0111    0.2811 C   0  0  0  0  0  0  0  0  0  0  0  0
  -83.0660   30.1147    1.4220 C   0  0  0  0  0  0  0  0  0  0  0  0
  -83.3734   28.9645    2.3544 C   0  0  0  0  0  0  0  0  0  0  0  0
  -84.6924   29.2115    2.9983 C   0  0  0  0  0  0  0  0  0  0  0  0
  -85.8312   29.3708    2.0244 C   0  0  0  0  0  0  0  0  0  0  0  0
  -87.8829   28.7651   -0.1743 C   0  0  0  0  0  0  0  0  0  0  0  0
  -88.5289   28.0996    0.8433 C   0  0  0  0  0  0  0  0  0  0  0  0
  -88.6740   26.7332    0.8211 C   0  0  0  0  0  0  0  0  0  0  0  0
  -88.1871   25.9621   -0.2076 C   0  0  0  0  0  0  0  0  0  0  0  0
  -87.5412   26.6326   -1.2237 C   0  0  0  0  0  0  0  0  0  0  0  0
  -87.3873   27.9905   -1.2191 C   0  0  0  0  0  0  0  0  0  0  0  0
  -90.1230   30.4890   -0.6434 C   0  0  0  0  0  0  0  0  0  0  0  0
  -89.8160   29.9031   -2.9310 O   0  0  0  0  0  0  0  0  0  0  0  0
  -90.2810   29.5890   -1.8048 C   0  0  0  0  0  0  0  0  0  0  0  0
  -90.9597   28.3383   -1.7033 N   0  0  0  0  0  0  0  0  0  0  0  0
  -91.3736   28.0096   -0.7965 H   0  0  0  0  0  0  0  0  0  0  0  0
  -91.0934   27.4899   -2.8610 C   0  0  0  0  0  0  0  0  0  0  0  0
  -92.4536   27.5231   -3.4474 C   0  0  0  0  0  0  0  0  0  0  0  0
  -92.6358   27.1198   -4.7460 C   0  0  0  0  0  0  0  0  0  0  0  0
  -93.8950   27.1296   -5.3429 C   0  0  0  0  0  0  0  0  0  0  0  0
  -94.9912   27.5538   -4.6179 C   0  0  0  0  0  0  0  0  0  0  0  0
  -94.8016   27.9625   -3.2998 C   0  0  0  0  0  0  0  0  0  0  0  0
  -93.5363   27.9462   -2.7193 C   0  0  0  0  0  0  0  0  0  0  0  0
 24 25  2  0  0  0
 25 23  1  0  0  0
 23  1  1  0  0  0
  1  2  1  0  0  0
  2  3  2  0  0  0
  3  4  1  0  0  0
  4  5  2  0  0  0
  5  6  1  0  0  0
  6  7  2  0  0  0
  7  8  1  0  0  0
  8  9  2  0  0  0
  9 11  1  0  0  0
 11 12  1  0  0  0
 12 13  1  0  0  0
 13 14  1  0  0  0
 14 15  1  0  0  0
 15 16  1  0  0  0
  9 10  1  0  0  0
 10 17  1  0  0  0
 17 18  2  0  0  0
 18 19  1  0  0  0
 19 20  2  0  0  0
 20 21  1  0  0  0
 21 22  2  0  0  0
 25 26  1  0  0  0
 26 28  1  0  0  0
 28 29  1  0  0  0
 29 30  2  0  0  0
 30 31  1  0  0  0
 31 32  2  0  0  0
 32 33  1  0  0  0
 33 34  2  0  0  0
 10  1  1  0  0  0
 22 17  1  0  0  0
 34 29  1  0  0  0
  7  2  1  0  0  0
 16 11  1  0  0  0
 26 27  1  0  0  0
M  END
> <minimizedAffinity>
-8.89809

> <CNNscore>
0.1107507572

> <CNNaffinity>
6.2513031960

> <CNN_VS>
0.6923365593

> <CNNaffinity_variance>
0.2725304663

$$$$
[H]c1c([H])c([H])c(N2C(N3C([H])([H])C([H])([H])C([H])([H])C([H])([H])C3([H])[H])=Nc3c([H])c([H])c([H])c([H])c3C2([H])C([H])([H])C(=O)N([H])C([H])([H])c2c([H])c([H])c([H])c([H])c2[H])c([H])c1[H]


 34 38  0  0  0  0  0  0  0  0999 V2000
  -88.8515   28.2015   -0.3270 C   0  0  0  0  0  0  0  0  0  0  0  0
  -89.1829   27.4833    0.9079 C   0  0  0  0  0  0  0  0  0  0  0  0
  -90.3488   26.7725    1.1077 C   0  0  0  0  0  0  0  0  0  0  0  0
  -90.4907   26.0147    2.2670 C   0  0  0  0  0  0  0  0  0  0  0  0
  -89.5055   25.9527    3.2220 C   0  0  0  0  0  0  0  0  0  0  0  0
  -88.3463   26.6570    3.0382 C   0  0  0  0  0  0  0  0  0  0  0  0
  -88.1878   27.4323    1.8696 C   0  0  0  0  0  0  0  0  0  0  0  0
  -87.0626   28.3029    1.8060 N   0  0  0  0  0  0  0  0  0  0  0  0
  -86.9593   29.1766    0.8468 C   0  0  0  0  0  0  0  0  0  0  0  0
  -88.0015   29.3238   -0.1050 N   0  0  0  0  0  0  0  0  0  0  0  0
  -85.8030   30.0129    0.8372 N   0  0  0  0  0  0  0  0  0  0  0  0
  -85.8455   31.2484    1.5597 C   0  0  0  0  0  0  0  0  0  0  0  0
  -84.4944   31.5223    2.2468 C   0  0  0  0  0  0  0  0  0  0  0  0
  -83.4617   31.4911    1.1426 C   0  0  0  0  0  0  0  0  0  0  0  0
  -83.3587   30.0995    0.6247 C   0  0  0  0  0  0  0  0  0  0  0  0
  -84.6561   29.5424    0.0982 C   0  0  0  0  0  0  0  0  0  0  0  0
  -88.1733   30.5462   -0.7927 C   0  0  0  0  0  0  0  0  0  0  0  0
  -89.0229   31.5385   -0.3580 C   0  0  0  0  0  0  0  0  0  0  0  0
  -89.1646   32.7122   -1.0587 C   0  0  0  0  0  0  0  0  0  0  0  0
  -88.4732   32.9586   -2.2212 C   0  0  0  0  0  0  0  0  0  0  0  0
  -87.6242   31.9624   -2.6523 C   0  0  0  0  0  0  0  0  0  0  0  0
  -87.4702   30.7890   -1.9691 C   0  0  0  0  0  0  0  0  0  0  0  0
  -89.8620   28.3096   -1.3896 C   0  0  0  0  0  0  0  0  0  0  0  0
  -91.5337   26.8955   -2.3258 O   0  0  0  0  0  0  0  0  0  0  0  0
  -90.3445   27.0236   -1.9349 C   0  0  0  0  0  0  0  0  0  0  0  0
  -89.4945   25.8828   -2.0415 N   0  0  0  0  0  0  0  0  0  0  0  0
  -88.4910   25.9146   -1.7355 H   0  0  0  0  0  0  0  0  0  0  0  0
  -90.0048   24.6461   -2.5781 C   0  0  0  0  0  0  0  0  0  0  0  0
  -90.5391   23.7404   -1.5344 C   0  0  0  0  0  0  0  0  0  0  0  0
  -89.7980   23.5066   -0.4038 C   0  0  0  0  0  0  0  0  0  0  0  0
  -90.2570   22.6655    0.6081 C   0  0  0  0  0  0  0  0  0  0  0  0
  -91.4856   22.0483    0.4783 C   0  0  0  0  0  0  0  0  0  0  0  0
  -92.2346   22.2884   -0.6713 C   0  0  0  0  0  0  0  0  0  0  0  0
  -91.7606   23.1318   -1.6724 C   0  0  0  0  0  0  0  0  0  0  0  0
 24 25  2  0  0  0
 25 23  1  0  0  0
 23  1  1  0  0  0
  1  2  1  0  0  0
  2  3  2  0  0  0
  3  4  1  0  0  0
  4  5  2  0  0  0
  5  6  1  0  0  0
  6  7  2  0  0  0
  7  8  1  0  0  0
  8  9  2  0  0  0
  9 11  1  0  0  0
 11 12  1  0  0  0
 12 13  1  0  0  0
 13 14  1  0  0  0
 14 15  1  0  0  0
 15 16  1  0  0  0
  9 10  1  0  0  0
 10 17  1  0  0  0
 17 18  2  0  0  0
 18 19  1  0  0  0
 19 20  2  0  0  0
 20 21  1  0  0  0
 21 22  2  0  0  0
 25 26  1  0  0  0
 26 28  1  0  0  0
 28 29  1  0  0  0
 29 30  2  0  0  0
 30 31  1  0  0  0
 31 32  2  0  0  0
 32 33  1  0  0  0
 33 34  2  0  0  0
 10  1  1  0  0  0
 22 17  1  0  0  0
 34 29  1  0  0  0
  7  2  1  0  0  0
 16 11  1  0  0  0
 26 27  1  0  0  0
M  END
> <minimizedAffinity>
-7.51776

> <CNNscore>
0.0966615379

> <CNNaffinity>
6.0553302765

> <CNN_VS>
0.5853175521

> <CNNaffinity_variance>
0.3662926555

$$$$
[H]c1c([H])c([H])c(N2C(N3C([H])([H])C([H])([H])C([H])([H])C([H])([H])C3([H])[H])=Nc3c([H])c([H])c([H])c([H])c3C2([H])C([H])([H])C(=O)N([H])C([H])([H])c2c([H])c([H])c([H])c([H])c2[H])c([H])c1[H]


 34 38  0  0  0  0  0  0  0  0999 V2000
  -87.9415   27.5765    0.8321 C   0  0  0  0  0  0  0  0  0  0  0  0
  -88.0585   28.4620   -0.3310 C   0  0  0  0  0  0  0  0  0  0  0  0
  -87.4980   29.7204   -0.4126 C   0  0  0  0  0  0  0  0  0  0  0  0
  -87.5560   30.4115   -1.6197 C   0  0  0  0  0  0  0  0  0  0  0  0
  -88.1564   29.8805   -2.7352 C   0  0  0  0  0  0  0  0  0  0  0  0
  -88.7205   28.6354   -2.6660 C   0  0  0  0  0  0  0  0  0  0  0  0
  -88.6726   27.9226   -1.4489 C   0  0  0  0  0  0  0  0  0  0  0  0
  -89.4380   26.7251   -1.3578 N   0  0  0  0  0  0  0  0  0  0  0  0
  -89.5871   26.1243   -0.2129 C   0  0  0  0  0  0  0  0  0  0  0  0
  -89.0520   26.6940    0.9715 N   0  0  0  0  0  0  0  0  0  0  0  0
  -90.3595   24.9245   -0.1926 N   0  0  0  0  0  0  0  0  0  0  0  0
  -89.6904   23.6757   -0.4008 C   0  0  0  0  0  0  0  0  0  0  0  0
  -90.2817   22.5843    0.5111 C   0  0  0  0  0  0  0  0  0  0  0  0
  -91.7608   22.5488    0.1983 C   0  0  0  0  0  0  0  0  0  0  0  0
  -92.3778   23.8205    0.6647 C   0  0  0  0  0  0  0  0  0  0  0  0
  -91.7762   25.0572    0.0489 C   0  0  0  0  0  0  0  0  0  0  0  0
  -89.6159   26.3864    2.2301 C   0  0  0  0  0  0  0  0  0  0  0  0
  -89.3372   25.2238    2.9131 C   0  0  0  0  0  0  0  0  0  0  0  0
  -89.9103   24.9604    4.1340 C   0  0  0  0  0  0  0  0  0  0  0  0
  -90.7851   25.8338    4.7357 C   0  0  0  0  0  0  0  0  0  0  0  0
  -91.0610   26.9958    4.0483 C   0  0  0  0  0  0  0  0  0  0  0  0
  -90.5009   27.2752    2.8334 C   0  0  0  0  0  0  0  0  0  0  0  0
  -87.3127   28.0825    2.0611 C   0  0  0  0  0  0  0  0  0  0  0  0
  -85.0979   27.9410    1.1978 O   0  0  0  0  0  0  0  0  0  0  0  0
  -85.9263   28.5700    1.9061 C   0  0  0  0  0  0  0  0  0  0  0  0
  -85.4694   29.7612    2.5444 N   0  0  0  0  0  0  0  0  0  0  0  0
  -86.1035   30.3379    3.1503 H   0  0  0  0  0  0  0  0  0  0  0  0
  -84.1083   30.2018    2.3685 C   0  0  0  0  0  0  0  0  0  0  0  0
  -83.9629   31.2144    1.2968 C   0  0  0  0  0  0  0  0  0  0  0  0
  -85.0698   31.9007    0.8657 C   0  0  0  0  0  0  0  0  0  0  0  0
  -84.9857   32.8645   -0.1372 C   0  0  0  0  0  0  0  0  0  0  0  0
  -83.7633   33.1420   -0.7169 C   0  0  0  0  0  0  0  0  0  0  0  0
  -82.6420   32.4428   -0.2763 C   0  0  0  0  0  0  0  0  0  0  0  0
  -82.7444   31.4830    0.7270 C   0  0  0  0  0  0  0  0  0  0  0  0
 24 25  2  0  0  0
 25 23  1  0  0  0
 23  1  1  0  0  0
  1  2  1  0  0  0
  2  3  2  0  0  0
  3  4  1  0  0  0
  4  5  2  0  0  0
  5  6  1  0  0  0
  6  7  2  0  0  0
  7  8  1  0  0  0
  8  9  2  0  0  0
  9 11  1  0  0  0
 11 12  1  0  0  0
 12 13  1  0  0  0
 13 14  1  0  0  0
 14 15  1  0  0  0
 15 16  1  0  0  0
  9 10  1  0  0  0
 10 17  1  0  0  0
 17 18  2  0  0  0
 18 19  1  0  0  0
 19 20  2  0  0  0
 20 21  1  0  0  0
 21 22  2  0  0  0
 25 26  1  0  0  0
 26 28  1  0  0  0
 28 29  1  0  0  0
 29 30  2  0  0  0
 30 31  1  0  0  0
 31 32  2  0  0  0
 32 33  1  0  0  0
 33 34  2  0  0  0
 10  1  1  0  0  0
 22 17  1  0  0  0
 34 29  1  0  0  0
  7  2  1  0  0  0
 16 11  1  0  0  0
 26 27  1  0  0  0
M  END
> <minimizedAffinity>
-9.12888

> <CNNscore>
0.0944248885

> <CNNaffinity>
6.4551811218

> <CNN_VS>
0.6095297337

> <CNNaffinity_variance>
0.0902594030

$$$$
[H]c1c([H])c([H])c(N2C(N3C([H])([H])C([H])([H])C([H])([H])C([H])([H])C3([H])[H])=Nc3c([H])c([H])c([H])c([H])c3C2([H])C([H])([H])C(=O)N([H])C([H])([H])c2c([H])c([H])c([H])c([H])c2[H])c([H])c1[H]


 34 38  0  0  0  0  0  0  0  0999 V2000
  -87.3670   29.1267    0.0942 C   0  0  0  0  0  0  0  0  0  0  0  0
  -86.0333   29.2353    0.6940 C   0  0  0  0  0  0  0  0  0  0  0  0
  -84.9351   29.7796    0.0599 C   0  0  0  0  0  0  0  0  0  0  0  0
  -83.7563   29.9582    0.7789 C   0  0  0  0  0  0  0  0  0  0  0  0
  -83.6502   29.6077    2.1027 C   0  0  0  0  0  0  0  0  0  0  0  0
  -84.7306   29.0622    2.7419 C   0  0  0  0  0  0  0  0  0  0  0  0
  -85.9322   28.8719    2.0264 C   0  0  0  0  0  0  0  0  0  0  0  0
  -86.9643   28.1242    2.6619 N   0  0  0  0  0  0  0  0  0  0  0  0
  -88.0172   27.7541    1.9922 C   0  0  0  0  0  0  0  0  0  0  0  0
  -88.1162   28.0261    0.6030 N   0  0  0  0  0  0  0  0  0  0  0  0
  -89.0175   27.0141    2.6909 N   0  0  0  0  0  0  0  0  0  0  0  0
  -88.8410   25.6016    2.8463 C   0  0  0  0  0  0  0  0  0  0  0  0
  -89.3147   25.1452    4.2391 C   0  0  0  0  0  0  0  0  0  0  0  0
  -90.7523   25.6010    4.3504 C   0  0  0  0  0  0  0  0  0  0  0  0
  -90.7789   27.0884    4.3995 C   0  0  0  0  0  0  0  0  0  0  0  0
  -90.1449   27.7538    3.2054 C   0  0  0  0  0  0  0  0  0  0  0  0
  -88.9302   27.2218   -0.2260 C   0  0  0  0  0  0  0  0  0  0  0  0
  -88.4797   26.0682   -0.8278 C   0  0  0  0  0  0  0  0  0  0  0  0
  -89.3029   25.3159   -1.6309 C   0  0  0  0  0  0  0  0  0  0  0  0
  -90.6086   25.6693   -1.8762 C   0  0  0  0  0  0  0  0  0  0  0  0
  -91.0548   26.8247   -1.2718 C   0  0  0  0  0  0  0  0  0  0  0  0
  -90.2512   27.5856   -0.4701 C   0  0  0  0  0  0  0  0  0  0  0  0
  -87.5508   29.4822   -1.3206 C   0  0  0  0  0  0  0  0  0  0  0  0
  -89.5153   30.5351   -2.1591 O   0  0  0  0  0  0  0  0  0  0  0  0
  -88.4105   30.6582   -1.5693 C   0  0  0  0  0  0  0  0  0  0  0  0
  -88.0319   31.9704   -1.1571 N   0  0  0  0  0  0  0  0  0  0  0  0
  -87.1251   32.1501   -0.6600 H   0  0  0  0  0  0  0  0  0  0  0  0
  -88.8990   33.0914   -1.4202 C   0  0  0  0  0  0  0  0  0  0  0  0
  -88.5879   33.7751   -2.6972 C   0  0  0  0  0  0  0  0  0  0  0  0
  -89.4941   33.7228   -3.7259 C   0  0  0  0  0  0  0  0  0  0  0  0
  -89.2500   34.3513   -4.9455 C   0  0  0  0  0  0  0  0  0  0  0  0
  -88.0708   35.0453   -5.1323 C   0  0  0  0  0  0  0  0  0  0  0  0
  -87.1535   35.0957   -4.0852 C   0  0  0  0  0  0  0  0  0  0  0  0
  -87.4136   34.4620   -2.8733 C   0  0  0  0  0  0  0  0  0  0  0  0
 24 25  2  0  0  0
 25 23  1  0  0  0
 23  1  1  0  0  0
  1  2  1  0  0  0
  2  3  2  0  0  0
  3  4  1  0  0  0
  4  5  2  0  0  0
  5  6  1  0  0  0
  6  7  2  0  0  0
  7  8  1  0  0  0
  8  9  2  0  0  0
  9 11  1  0  0  0
 11 12  1  0  0  0
 12 13  1  0  0  0
 13 14  1  0  0  0
 14 15  1  0  0  0
 15 16  1  0  0  0
  9 10  1  0  0  0
 10 17  1  0  0  0
 17 18  2  0  0  0
 18 19  1  0  0  0
 19 20  2  0  0  0
 20 21  1  0  0  0
 21 22  2  0  0  0
 25 26  1  0  0  0
 26 28  1  0  0  0
 28 29  1  0  0  0
 29 30  2  0  0  0
 30 31  1  0  0  0
 31 32  2  0  0  0
 32 33  1  0  0  0
 33 34  2  0  0  0
 10  1  1  0  0  0
 22 17  1  0  0  0
 34 29  1  0  0  0
  7  2  1  0  0  0
 16 11  1  0  0  0
 26 27  1  0  0  0
M  END
> <minimizedAffinity>
-9.29499

> <CNNscore>
0.0917659327

> <CNNaffinity>
6.4248580933

> <CNN_VS>
0.5895830989

> <CNNaffinity_variance>
0.1706169248

$$$$
[H]c1c([H])c([H])c(N2C(N3C([H])([H])C([H])([H])C([H])([H])C([H])([H])C3([H])[H])=Nc3c([H])c([H])c([H])c([H])c3C2([H])C([H])([H])C(=O)N([H])C([H])([H])c2c([H])c([H])c([H])c([H])c2[H])c([H])c1[H]


 34 38  0  0  0  0  0  0  0  0999 V2000
  -88.5011   27.8548   -0.6427 C   0  0  0  0  0  0  0  0  0  0  0  0
  -89.0560   27.0774    0.4700 C   0  0  0  0  0  0  0  0  0  0  0  0
  -90.2411   26.3725    0.4143 C   0  0  0  0  0  0  0  0  0  0  0  0
  -90.5960   25.5570    1.4854 C   0  0  0  0  0  0  0  0  0  0  0  0
  -89.8032   25.4322    2.6001 C   0  0  0  0  0  0  0  0  0  0  0  0
  -88.6278   26.1300    2.6700 C   0  0  0  0  0  0  0  0  0  0  0  0
  -88.2547   26.9633    1.5937 C   0  0  0  0  0  0  0  0  0  0  0  0
  -87.1342   27.8212    1.7843 N   0  0  0  0  0  0  0  0  0  0  0  0
  -86.8536   28.7424    0.9087 C   0  0  0  0  0  0  0  0  0  0  0  0
  -87.7027   28.9528   -0.2087 N   0  0  0  0  0  0  0  0  0  0  0  0
  -85.7126   29.5629    1.1562 N   0  0  0  0  0  0  0  0  0  0  0  0
  -84.7476   29.7273    0.1112 C   0  0  0  0  0  0  0  0  0  0  0  0
  -84.2174   31.1733    0.0844 C   0  0  0  0  0  0  0  0  0  0  0  0
  -83.6724   31.4335    1.4707 C   0  0  0  0  0  0  0  0  0  0  0  0
  -84.8073   31.4541    2.4335 C   0  0  0  0  0  0  0  0  0  0  0  0
  -85.6171   30.1834    2.4558 C   0  0  0  0  0  0  0  0  0  0  0  0
  -87.7413   30.2116   -0.8495 C   0  0  0  0  0  0  0  0  0  0  0  0
  -87.2289   30.4282   -2.1090 C   0  0  0  0  0  0  0  0  0  0  0  0
  -87.2827   31.6698   -2.6957 C   0  0  0  0  0  0  0  0  0  0  0  0
  -87.8451   32.7539   -2.0645 C   0  0  0  0  0  0  0  0  0  0  0  0
  -88.3565   32.5321   -0.8042 C   0  0  0  0  0  0  0  0  0  0  0  0
  -88.3122   31.3049   -0.2046 C   0  0  0  0  0  0  0  0  0  0  0  0
  -89.2988   28.0315   -1.8652 C   0  0  0  0  0  0  0  0  0  0  0  0
  -91.0582   29.1668   -0.7309 O   0  0  0  0  0  0  0  0  0  0  0  0
  -90.3712   29.0446   -1.7780 C   0  0  0  0  0  0  0  0  0  0  0  0
  -90.6727   29.9195   -2.8637 N   0  0  0  0  0  0  0  0  0  0  0  0
  -90.1420   29.8761   -3.7683 H   0  0  0  0  0  0  0  0  0  0  0  0
  -91.7279   30.8935   -2.7385 C   0  0  0  0  0  0  0  0  0  0  0  0
  -91.7604   31.8577   -3.8629 C   0  0  0  0  0  0  0  0  0  0  0  0
  -90.5798   32.3339   -4.3744 C   0  0  0  0  0  0  0  0  0  0  0  0
  -90.5563   33.2399   -5.4330 C   0  0  0  0  0  0  0  0  0  0  0  0
  -91.7446   33.6744   -5.9865 C   0  0  0  0  0  0  0  0  0  0  0  0
  -92.9409   33.1884   -5.4640 C   0  0  0  0  0  0  0  0  0  0  0  0
  -92.9458   32.2836   -4.4060 C   0  0  0  0  0  0  0  0  0  0  0  0
 24 25  2  0  0  0
 25 23  1  0  0  0
 23  1  1  0  0  0
  1  2  1  0  0  0
  2  3  2  0  0  0
  3  4  1  0  0  0
  4  5  2  0  0  0
  5  6  1  0  0  0
  6  7  2  0  0  0
  7  8  1  0  0  0
  8  9  2  0  0  0
  9 11  1  0  0  0
 11 12  1  0  0  0
 12 13  1  0  0  0
 13 14  1  0  0  0
 14 15  1  0  0  0
 15 16  1  0  0  0
  9 10  1  0  0  0
 10 17  1  0  0  0
 17 18  2  0  0  0
 18 19  1  0  0  0
 19 20  2  0  0  0
 20 21  1  0  0  0
 21 22  2  0  0  0
 25 26  1  0  0  0
 26 28  1  0  0  0
 28 29  1  0  0  0
 29 30  2  0  0  0
 30 31  1  0  0  0
 31 32  2  0  0  0
 32 33  1  0  0  0
 33 34  2  0  0  0
 10  1  1  0  0  0
 22 17  1  0  0  0
 34 29  1  0  0  0
  7  2  1  0  0  0
 16 11  1  0  0  0
 26 27  1  0  0  0
M  END
> <minimizedAffinity>
-7.57170

> <CNNscore>
0.0906593576

> <CNNaffinity>
6.1615829468

> <CNN_VS>
0.5586051345

> <CNNaffinity_variance>
0.3190930188

$$$$
[H]c1c([H])c([H])c(C([H])(N2C([H])([H])C([H])([H])N(C([H])([H])C#N)C([H])([H])C2([H])[H])C([H])([H])OC([H])([H])c2c([H])c(C(F)(F)F)c([H])c(C(F)(F)F)c2[H])c([H])c1[H]


 33 35  0  0  0  0  0  0  0  0999 V2000
  -89.8289   30.0231   -0.5510 C   0  0  0  0  0  0  0  0  0  0  0  0
  -89.7853   28.5569   -0.2814 C   0  0  0  0  0  0  0  0  0  0  0  0
  -92.2736   26.6750   -3.1061 N   0  0  0  0  0  0  0  0  0  0  0  0
  -91.2799   25.9075   -2.4470 C   0  0  0  0  0  0  0  0  0  0  0  0
  -90.1502   26.7872   -1.9186 C   0  0  0  0  0  0  0  0  0  0  0  0
  -90.6555   27.8476   -1.1286 N   0  0  0  0  0  0  0  0  0  0  0  0
  -91.7786   28.5672   -1.6177 C   0  0  0  0  0  0  0  0  0  0  0  0
  -92.1044   28.0844   -3.0055 C   0  0  0  0  0  0  0  0  0  0  0  0
  -92.8199   26.1648   -4.3074 C   0  0  0  0  0  0  0  0  0  0  0  0
  -92.3571   27.8721   -6.2803 N   0  0  0  0  0  0  0  0  0  0  0  0
  -92.5539   27.1165   -5.3980 C   0  0  0  0  0  0  0  0  0  0  0  0
  -89.9771   28.3191    1.1712 C   0  0  0  0  0  0  0  0  0  0  0  0
  -91.0420   28.8042    1.8977 C   0  0  0  0  0  0  0  0  0  0  0  0
  -91.1629   28.5922    3.2577 C   0  0  0  0  0  0  0  0  0  0  0  0
  -90.2166   27.8807    3.9568 C   0  0  0  0  0  0  0  0  0  0  0  0
  -89.1409   27.3829    3.2439 C   0  0  0  0  0  0  0  0  0  0  0  0
  -89.0336   27.6045    1.8827 C   0  0  0  0  0  0  0  0  0  0  0  0
  -88.7067   30.7389   -0.1417 O   0  0  0  0  0  0  0  0  0  0  0  0
  -87.6437   30.0934   -0.8234 C   0  0  0  0  0  0  0  0  0  0  0  0
  -86.3632   30.1859   -0.1506 C   0  0  0  0  0  0  0  0  0  0  0  0
  -85.9830   29.1882    0.7742 C   0  0  0  0  0  0  0  0  0  0  0  0
  -84.7938   29.2114    1.4365 C   0  0  0  0  0  0  0  0  0  0  0  0
  -83.9146   30.2408    1.2079 C   0  0  0  0  0  0  0  0  0  0  0  0
  -84.2687   31.2208    0.3113 C   0  0  0  0  0  0  0  0  0  0  0  0
  -85.4844   31.2110   -0.3765 C   0  0  0  0  0  0  0  0  0  0  0  0
  -84.3920   28.1577    2.4160 C   0  0  0  0  0  0  0  0  0  0  0  0
  -84.9715   26.9650    2.1465 F   0  0  0  0  0  0  0  0  0  0  0  0
  -84.7367   28.6500    3.6670 F   0  0  0  0  0  0  0  0  0  0  0  0
  -83.0070   28.1032    2.3968 F   0  0  0  0  0  0  0  0  0  0  0  0
  -83.2681   32.3134    0.0915 C   0  0  0  0  0  0  0  0  0  0  0  0
  -82.9525   32.9224    1.3133 F   0  0  0  0  0  0  0  0  0  0  0  0
  -82.1325   31.7199   -0.3955 F   0  0  0  0  0  0  0  0  0  0  0  0
  -83.7250   33.3005   -0.7567 F   0  0  0  0  0  0  0  0  0  0  0  0
 10 11  3  0  0  0
 11  9  1  0  0  0
  9  3  1  0  0  0
  3  4  1  0  0  0
  4  5  1  0  0  0
  5  6  1  0  0  0
  6  2  1  0  0  0
  2  1  1  0  0  0
  1 18  1  0  0  0
 18 19  1  0  0  0
 19 20  1  0  0  0
 20 21  2  0  0  0
 21 22  1  0  0  0
 22 26  1  0  0  0
 26 27  1  0  0  0
 26 28  1  0  0  0
 26 29  1  0  0  0
 22 23  2  0  0  0
 23 24  1  0  0  0
 24 30  1  0  0  0
 30 31  1  0  0  0
 30 32  1  0  0  0
 30 33  1  0  0  0
 24 25  2  0  0  0
  2 12  1  0  0  0
 12 13  2  0  0  0
 13 14  1  0  0  0
 14 15  2  0  0  0
 15 16  1  0  0  0
 16 17  2  0  0  0
  6  7  1  0  0  0
  7  8  1  0  0  0
  8  3  1  0  0  0
 25 20  1  0  0  0
 17 12  1  0  0  0
M  END
> <minimizedAffinity>
-8.49801

> <CNNscore>
0.5272074938

> <CNNaffinity>
6.3682508469

> <CNN_VS>
3.3573894501

> <CNNaffinity_variance>
0.2977091670

$$$$
[H]c1c([H])c([H])c(C([H])(N2C([H])([H])C([H])([H])N(C([H])([H])C#N)C([H])([H])C2([H])[H])C([H])([H])OC([H])([H])c2c([H])c(C(F)(F)F)c([H])c(C(F)(F)F)c2[H])c([H])c1[H]


 33 35  0  0  0  0  0  0  0  0999 V2000
  -90.3176   28.7681   -0.5777 C   0  0  0  0  0  0  0  0  0  0  0  0
  -89.7995   27.5522    0.1131 C   0  0  0  0  0  0  0  0  0  0  0  0
  -91.3489   23.8457   -1.1412 N   0  0  0  0  0  0  0  0  0  0  0  0
  -92.2448   24.9174   -0.8974 C   0  0  0  0  0  0  0  0  0  0  0  0
  -91.6382   25.9523    0.0462 C   0  0  0  0  0  0  0  0  0  0  0  0
  -90.3672   26.3766   -0.4102 N   0  0  0  0  0  0  0  0  0  0  0  0
  -89.4537   25.3846   -0.8571 C   0  0  0  0  0  0  0  0  0  0  0  0
  -90.0438   24.0236   -0.6026 C   0  0  0  0  0  0  0  0  0  0  0  0
  -91.8741   22.5321   -1.1654 C   0  0  0  0  0  0  0  0  0  0  0  0
  -92.2458   21.7105    1.3261 N   0  0  0  0  0  0  0  0  0  0  0  0
  -92.0914   22.0764    0.2169 C   0  0  0  0  0  0  0  0  0  0  0  0
  -89.9360   27.7260    1.5809 C   0  0  0  0  0  0  0  0  0  0  0  0
  -89.1007   27.1421    2.5074 C   0  0  0  0  0  0  0  0  0  0  0  0
  -89.2862   27.2985    3.8676 C   0  0  0  0  0  0  0  0  0  0  0  0
  -90.3237   28.0511    4.3653 C   0  0  0  0  0  0  0  0  0  0  0  0
  -91.1719   28.6480    3.4503 C   0  0  0  0  0  0  0  0  0  0  0  0
  -90.9735   28.4811    2.0915 C   0  0  0  0  0  0  0  0  0  0  0  0
  -89.4892   29.8860   -0.5201 O   0  0  0  0  0  0  0  0  0  0  0  0
  -88.2446   29.3920   -0.9875 C   0  0  0  0  0  0  0  0  0  0  0  0
  -87.0895   30.0503   -0.4104 C   0  0  0  0  0  0  0  0  0  0  0  0
  -86.3373   29.3971    0.5910 C   0  0  0  0  0  0  0  0  0  0  0  0
  -85.2396   29.9558    1.1709 C   0  0  0  0  0  0  0  0  0  0  0  0
  -84.8320   31.2065    0.7778 C   0  0  0  0  0  0  0  0  0  0  0  0
  -85.5529   31.8570   -0.1954 C   0  0  0  0  0  0  0  0  0  0  0  0
  -86.6806   31.2973   -0.8003 C   0  0  0  0  0  0  0  0  0  0  0  0
  -84.4448   29.2663    2.2313 C   0  0  0  0  0  0  0  0  0  0  0  0
  -83.1347   29.6013    2.1837 F   0  0  0  0  0  0  0  0  0  0  0  0
  -84.6573   27.9078    2.0429 F   0  0  0  0  0  0  0  0  0  0  0  0
  -85.0403   29.5804    3.4430 F   0  0  0  0  0  0  0  0  0  0  0  0
  -85.0578   33.2131   -0.5943 C   0  0  0  0  0  0  0  0  0  0  0  0
  -85.1702   33.3714   -1.9820 F   0  0  0  0  0  0  0  0  0  0  0  0
  -85.8806   34.1293    0.0078 F   0  0  0  0  0  0  0  0  0  0  0  0
  -83.7366   33.4248   -0.2596 F   0  0  0  0  0  0  0  0  0  0  0  0
 10 11  3  0  0  0
 11  9  1  0  0  0
  9  3  1  0  0  0
  3  4  1  0  0  0
  4  5  1  0  0  0
  5  6  1  0  0  0
  6  2  1  0  0  0
  2  1  1  0  0  0
  1 18  1  0  0  0
 18 19  1  0  0  0
 19 20  1  0  0  0
 20 21  2  0  0  0
 21 22  1  0  0  0
 22 26  1  0  0  0
 26 27  1  0  0  0
 26 28  1  0  0  0
 26 29  1  0  0  0
 22 23  2  0  0  0
 23 24  1  0  0  0
 24 30  1  0  0  0
 30 31  1  0  0  0
 30 32  1  0  0  0
 30 33  1  0  0  0
 24 25  2  0  0  0
  2 12  1  0  0  0
 12 13  2  0  0  0
 13 14  1  0  0  0
 14 15  2  0  0  0
 15 16  1  0  0  0
 16 17  2  0  0  0
  6  7  1  0  0  0
  7  8  1  0  0  0
  8  3  1  0  0  0
 25 20  1  0  0  0
 17 12  1  0  0  0
M  END
> <minimizedAffinity>
-8.57359

> <CNNscore>
0.5259418488

> <CNNaffinity>
6.2468175888

> <CNN_VS>
3.2854628563

> <CNNaffinity_variance>
0.4480373263

$$$$
[H]c1c([H])c([H])c(C([H])(N2C([H])([H])C([H])([H])N(C([H])([H])C#N)C([H])([H])C2([H])[H])C([H])([H])OC([H])([H])c2c([H])c(C(F)(F)F)c([H])c(C(F)(F)F)c2[H])c([H])c1[H]


 33 35  0  0  0  0  0  0  0  0999 V2000
  -90.4468   29.9381   -1.2396 C   0  0  0  0  0  0  0  0  0  0  0  0
  -90.9109   30.8936   -2.2865 C   0  0  0  0  0  0  0  0  0  0  0  0
  -93.4369   29.1682   -5.1769 N   0  0  0  0  0  0  0  0  0  0  0  0
  -93.0353   28.3885   -4.0626 C   0  0  0  0  0  0  0  0  0  0  0  0
  -91.7432   28.9162   -3.4451 C   0  0  0  0  0  0  0  0  0  0  0  0
  -91.8425   30.2983   -3.1559 N   0  0  0  0  0  0  0  0  0  0  0  0
  -92.4089   31.1474   -4.1441 C   0  0  0  0  0  0  0  0  0  0  0  0
  -92.6665   30.3453   -5.3913 C   0  0  0  0  0  0  0  0  0  0  0  0
  -93.9325   28.4929   -6.3172 C   0  0  0  0  0  0  0  0  0  0  0  0
  -93.7013   25.8783   -5.9542 N   0  0  0  0  0  0  0  0  0  0  0  0
  -93.8101   27.0415   -6.1065 C   0  0  0  0  0  0  0  0  0  0  0  0
  -89.7322   31.5120   -2.9436 C   0  0  0  0  0  0  0  0  0  0  0  0
  -88.8348   30.8201   -3.7265 C   0  0  0  0  0  0  0  0  0  0  0  0
  -87.7280   31.4266   -4.2889 C   0  0  0  0  0  0  0  0  0  0  0  0
  -87.4673   32.7620   -4.0911 C   0  0  0  0  0  0  0  0  0  0  0  0
  -88.3589   33.4746   -3.3099 C   0  0  0  0  0  0  0  0  0  0  0  0
  -89.4620   32.8528   -2.7530 C   0  0  0  0  0  0  0  0  0  0  0  0
  -89.6018   30.4765   -0.2725 O   0  0  0  0  0  0  0  0  0  0  0  0
  -88.5117   29.5695   -0.2528 C   0  0  0  0  0  0  0  0  0  0  0  0
  -87.2295   30.1873    0.0212 C   0  0  0  0  0  0  0  0  0  0  0  0
  -86.3042   29.5374    0.8677 C   0  0  0  0  0  0  0  0  0  0  0  0
  -85.0818   30.0591    1.1624 C   0  0  0  0  0  0  0  0  0  0  0  0
  -84.7161   31.2672    0.6224 C   0  0  0  0  0  0  0  0  0  0  0  0
  -85.6048   31.9140   -0.2035 C   0  0  0  0  0  0  0  0  0  0  0  0
  -86.8621   31.3918   -0.5159 C   0  0  0  0  0  0  0  0  0  0  0  0
  -84.1036   29.3732    2.0591 C   0  0  0  0  0  0  0  0  0  0  0  0
  -83.8888   28.0892    1.6901 F   0  0  0  0  0  0  0  0  0  0  0  0
  -84.6225   29.4820    3.3417 F   0  0  0  0  0  0  0  0  0  0  0  0
  -82.9487   30.1397    2.0493 F   0  0  0  0  0  0  0  0  0  0  0  0
  -85.1504   33.2222   -0.7740 C   0  0  0  0  0  0  0  0  0  0  0  0
  -84.9641   33.0988   -2.1572 F   0  0  0  0  0  0  0  0  0  0  0  0
  -86.1615   34.1222   -0.5581 F   0  0  0  0  0  0  0  0  0  0  0  0
  -83.9598   33.6616   -0.2339 F   0  0  0  0  0  0  0  0  0  0  0  0
 10 11  3  0  0  0
 11  9  1  0  0  0
  9  3  1  0  0  0
  3  4  1  0  0  0
  4  5  1  0  0  0
  5  6  1  0  0  0
  6  2  1  0  0  0
  2  1  1  0  0  0
  1 18  1  0  0  0
 18 19  1  0  0  0
 19 20  1  0  0  0
 20 21  2  0  0  0
 21 22  1  0  0  0
 22 26  1  0  0  0
 26 27  1  0  0  0
 26 28  1  0  0  0
 26 29  1  0  0  0
 22 23  2  0  0  0
 23 24  1  0  0  0
 24 30  1  0  0  0
 30 31  1  0  0  0
 30 32  1  0  0  0
 30 33  1  0  0  0
 24 25  2  0  0  0
  2 12  1  0  0  0
 12 13  2  0  0  0
 13 14  1  0  0  0
 14 15  2  0  0  0
 15 16  1  0  0  0
 16 17  2  0  0  0
  6  7  1  0  0  0
  7  8  1  0  0  0
  8  3  1  0  0  0
 25 20  1  0  0  0
 17 12  1  0  0  0
M  END
> <minimizedAffinity>
-7.82279

> <CNNscore>
0.3770506084

> <CNNaffinity>
5.7749724388

> <CNN_VS>
2.1774568558

> <CNNaffinity_variance>
0.5837010145

$$$$
[H]c1c([H])c([H])c(C([H])(N2C([H])([H])C([H])([H])N(C([H])([H])C#N)C([H])([H])C2([H])[H])C([H])([H])OC([H])([H])c2c([H])c(C(F)(F)F)c([H])c(C(F)(F)F)c2[H])c([H])c1[H]


 33 35  0  0  0  0  0  0  0  0999 V2000
  -87.4711   26.4022    1.1460 C   0  0  0  0  0  0  0  0  0  0  0  0
  -88.8432   25.8634    1.3727 C   0  0  0  0  0  0  0  0  0  0  0  0
  -91.2586   26.3196   -2.0433 N   0  0  0  0  0  0  0  0  0  0  0  0
  -91.8750   26.2794   -0.7669 C   0  0  0  0  0  0  0  0  0  0  0  0
  -90.9933   25.5740    0.2599 C   0  0  0  0  0  0  0  0  0  0  0  0
  -89.6916   26.1296    0.2830 N   0  0  0  0  0  0  0  0  0  0  0  0
  -89.0533   26.3851   -0.9603 C   0  0  0  0  0  0  0  0  0  0  0  0
  -89.9150   25.8518   -2.0731 C   0  0  0  0  0  0  0  0  0  0  0  0
  -92.0645   26.0701   -3.1792 C   0  0  0  0  0  0  0  0  0  0  0  0
  -92.2168   28.2894   -4.6189 N   0  0  0  0  0  0  0  0  0  0  0  0
  -92.1599   27.3012   -3.9800 C   0  0  0  0  0  0  0  0  0  0  0  0
  -89.3396   26.3248    2.6933 C   0  0  0  0  0  0  0  0  0  0  0  0
  -89.9066   27.5604    2.9149 C   0  0  0  0  0  0  0  0  0  0  0  0
  -90.3209   27.9659    4.1691 C   0  0  0  0  0  0  0  0  0  0  0  0
  -90.1850   27.1477    5.2657 C   0  0  0  0  0  0  0  0  0  0  0  0
  -89.6203   25.9016    5.0627 C   0  0  0  0  0  0  0  0  0  0  0  0
  -89.2095   25.5105    3.8010 C   0  0  0  0  0  0  0  0  0  0  0  0
  -87.1887   27.6053    1.7878 O   0  0  0  0  0  0  0  0  0  0  0  0
  -85.8782   27.9120    1.3406 C   0  0  0  0  0  0  0  0  0  0  0  0
  -85.7281   29.2551    0.8170 C   0  0  0  0  0  0  0  0  0  0  0  0
  -86.8488   29.9296    0.2839 C   0  0  0  0  0  0  0  0  0  0  0  0
  -86.7787   31.1927   -0.2190 C   0  0  0  0  0  0  0  0  0  0  0  0
  -85.5756   31.8542   -0.2155 C   0  0  0  0  0  0  0  0  0  0  0  0
  -84.4742   31.2125    0.2993 C   0  0  0  0  0  0  0  0  0  0  0  0
  -84.5298   29.9172    0.8192 C   0  0  0  0  0  0  0  0  0  0  0  0
  -87.9631   31.9058   -0.7848 C   0  0  0  0  0  0  0  0  0  0  0  0
  -87.8259   33.2504   -0.7205 F   0  0  0  0  0  0  0  0  0  0  0  0
  -89.0609   31.4449   -0.0716 F   0  0  0  0  0  0  0  0  0  0  0  0
  -88.1274   31.4397   -2.0799 F   0  0  0  0  0  0  0  0  0  0  0  0
  -83.1905   31.9839    0.2888 C   0  0  0  0  0  0  0  0  0  0  0  0
  -82.1457   31.1629   -0.1558 F   0  0  0  0  0  0  0  0  0  0  0  0
  -83.3467   33.0029   -0.6146 F   0  0  0  0  0  0  0  0  0  0  0  0
  -82.8389   32.4628    1.5336 F   0  0  0  0  0  0  0  0  0  0  0  0
 10 11  3  0  0  0
 11  9  1  0  0  0
  9  3  1  0  0  0
  3  4  1  0  0  0
  4  5  1  0  0  0
  5  6  1  0  0  0
  6  2  1  0  0  0
  2  1  1  0  0  0
  1 18  1  0  0  0
 18 19  1  0  0  0
 19 20  1  0  0  0
 20 21  2  0  0  0
 21 22  1  0  0  0
 22 26  1  0  0  0
 26 27  1  0  0  0
 26 28  1  0  0  0
 26 29  1  0  0  0
 22 23  2  0  0  0
 23 24  1  0  0  0
 24 30  1  0  0  0
 30 31  1  0  0  0
 30 32  1  0  0  0
 30 33  1  0  0  0
 24 25  2  0  0  0
  2 12  1  0  0  0
 12 13  2  0  0  0
 13 14  1  0  0  0
 14 15  2  0  0  0
 15 16  1  0  0  0
 16 17  2  0  0  0
  6  7  1  0  0  0
  7  8  1  0  0  0
  8  3  1  0  0  0
 25 20  1  0  0  0
 17 12  1  0  0  0
M  END
> <minimizedAffinity>
-8.62224

> <CNNscore>
0.3638871908

> <CNNaffinity>
6.2994322777

> <CNN_VS>
2.2922828197

> <CNNaffinity_variance>
0.2928326726

$$$$
[H]c1c([H])c([H])c(C([H])(N2C([H])([H])C([H])([H])N(C([H])([H])C#N)C([H])([H])C2([H])[H])C([H])([H])OC([H])([H])c2c([H])c(C(F)(F)F)c([H])c(C(F)(F)F)c2[H])c([H])c1[H]


 33 35  0  0  0  0  0  0  0  0999 V2000
  -88.4438   28.9678   -2.8003 C   0  0  0  0  0  0  0  0  0  0  0  0
  -89.5604   29.9525   -2.7114 C   0  0  0  0  0  0  0  0  0  0  0  0
  -93.1263   28.7873   -4.6190 N   0  0  0  0  0  0  0  0  0  0  0  0
  -92.3623   29.8434   -5.1773 C   0  0  0  0  0  0  0  0  0  0  0  0
  -91.4649   30.5002   -4.1320 C   0  0  0  0  0  0  0  0  0  0  0  0
  -90.6793   29.5366   -3.4553 N   0  0  0  0  0  0  0  0  0  0  0  0
  -91.3172   28.3460   -3.0150 C   0  0  0  0  0  0  0  0  0  0  0  0
  -92.7955   28.4561   -3.2752 C   0  0  0  0  0  0  0  0  0  0  0  0
  -94.4814   28.6688   -5.0084 C   0  0  0  0  0  0  0  0  0  0  0  0
  -94.5950   28.1072   -7.5955 N   0  0  0  0  0  0  0  0  0  0  0  0
  -94.5422   28.3464   -6.4430 C   0  0  0  0  0  0  0  0  0  0  0  0
  -89.0475   31.3068   -3.0370 C   0  0  0  0  0  0  0  0  0  0  0  0
  -88.1195   31.5635   -4.0219 C   0  0  0  0  0  0  0  0  0  0  0  0
  -87.6390   32.8356   -4.2671 C   0  0  0  0  0  0  0  0  0  0  0  0
  -88.0682   33.9154   -3.5322 C   0  0  0  0  0  0  0  0  0  0  0  0
  -89.0024   33.6781   -2.5402 C   0  0  0  0  0  0  0  0  0  0  0  0
  -89.4731   32.3986   -2.3062 C   0  0  0  0  0  0  0  0  0  0  0  0
  -88.1658   28.2729   -1.6260 O   0  0  0  0  0  0  0  0  0  0  0  0
  -88.3469   29.2539   -0.6178 C   0  0  0  0  0  0  0  0  0  0  0  0
  -87.1129   29.8254   -0.1163 C   0  0  0  0  0  0  0  0  0  0  0  0
  -86.6986   31.1004   -0.5612 C   0  0  0  0  0  0  0  0  0  0  0  0
  -85.5545   31.6969   -0.1272 C   0  0  0  0  0  0  0  0  0  0  0  0
  -84.7574   31.0459    0.7817 C   0  0  0  0  0  0  0  0  0  0  0  0
  -85.1452   29.8038    1.2250 C   0  0  0  0  0  0  0  0  0  0  0  0
  -86.3162   29.1787    0.7899 C   0  0  0  0  0  0  0  0  0  0  0  0
  -85.1148   33.0444   -0.5987 C   0  0  0  0  0  0  0  0  0  0  0  0
  -85.1817   33.1589   -1.9453 F   0  0  0  0  0  0  0  0  0  0  0  0
  -83.8274   33.2169   -0.1100 F   0  0  0  0  0  0  0  0  0  0  0  0
  -85.9012   33.9743    0.0634 F   0  0  0  0  0  0  0  0  0  0  0  0
  -84.2453   29.1439    2.2240 C   0  0  0  0  0  0  0  0  0  0  0  0
  -84.7515   29.3312    3.5170 F   0  0  0  0  0  0  0  0  0  0  0  0
  -84.2634   27.8012    1.9489 F   0  0  0  0  0  0  0  0  0  0  0  0
  -82.9605   29.6454    2.2063 F   0  0  0  0  0  0  0  0  0  0  0  0
 10 11  3  0  0  0
 11  9  1  0  0  0
  9  3  1  0  0  0
  3  4  1  0  0  0
  4  5  1  0  0  0
  5  6  1  0  0  0
  6  2  1  0  0  0
  2  1  1  0  0  0
  1 18  1  0  0  0
 18 19  1  0  0  0
 19 20  1  0  0  0
 20 21  2  0  0  0
 21 22  1  0  0  0
 22 26  1  0  0  0
 26 27  1  0  0  0
 26 28  1  0  0  0
 26 29  1  0  0  0
 22 23  2  0  0  0
 23 24  1  0  0  0
 24 30  1  0  0  0
 30 31  1  0  0  0
 30 32  1  0  0  0
 30 33  1  0  0  0
 24 25  2  0  0  0
  2 12  1  0  0  0
 12 13  2  0  0  0
 13 14  1  0  0  0
 14 15  2  0  0  0
 15 16  1  0  0  0
 16 17  2  0  0  0
  6  7  1  0  0  0
  7  8  1  0  0  0
  8  3  1  0  0  0
 25 20  1  0  0  0
 17 12  1  0  0  0
M  END
> <minimizedAffinity>
-8.25522

> <CNNscore>
0.3232148290

> <CNNaffinity>
5.8686838150

> <CNN_VS>
1.8968455791

> <CNNaffinity_variance>
0.5265096426

$$$$
[H]c1c([H])c([H])c(C([H])(N2C([H])([H])C([H])([H])N(C([H])([H])C#N)C([H])([H])C2([H])[H])C([H])([H])OC([H])([H])c2c([H])c(C(F)(F)F)c([H])c(C(F)(F)F)c2[H])c([H])c1[H]


 33 35  0  0  0  0  0  0  0  0999 V2000
  -89.3346   29.1146   -0.6993 C   0  0  0  0  0  0  0  0  0  0  0  0
  -89.1068   27.8270    0.0179 C   0  0  0  0  0  0  0  0  0  0  0  0
  -90.6635   24.4027   -1.8697 N   0  0  0  0  0  0  0  0  0  0  0  0
  -91.0908   25.6821   -2.3071 C   0  0  0  0  0  0  0  0  0  0  0  0
  -90.9021   26.7382   -1.2216 C   0  0  0  0  0  0  0  0  0  0  0  0
  -89.5765   26.7292   -0.7252 N   0  0  0  0  0  0  0  0  0  0  0  0
  -88.9837   25.4724   -0.4293 C   0  0  0  0  0  0  0  0  0  0  0  0
  -90.0150   24.3901   -0.6030 C   0  0  0  0  0  0  0  0  0  0  0  0
  -91.4597   23.2834   -2.2093 C   0  0  0  0  0  0  0  0  0  0  0  0
  -92.4677   22.2162   -0.0034 N   0  0  0  0  0  0  0  0  0  0  0  0
  -92.0123   22.6962   -0.9782 C   0  0  0  0  0  0  0  0  0  0  0  0
  -89.6382   27.9342    1.3997 C   0  0  0  0  0  0  0  0  0  0  0  0
  -90.7930   28.6078    1.7314 C   0  0  0  0  0  0  0  0  0  0  0  0
  -91.2326   28.7165    3.0368 C   0  0  0  0  0  0  0  0  0  0  0  0
  -90.5312   28.1527    4.0763 C   0  0  0  0  0  0  0  0  0  0  0  0
  -89.3701   27.4695    3.7628 C   0  0  0  0  0  0  0  0  0  0  0  0
  -88.9425   27.3703    2.4509 C   0  0  0  0  0  0  0  0  0  0  0  0
  -88.1927   29.7179   -1.2201 O   0  0  0  0  0  0  0  0  0  0  0  0
  -87.8334   30.6534   -0.2164 C   0  0  0  0  0  0  0  0  0  0  0  0
  -86.4642   30.5349    0.2437 C   0  0  0  0  0  0  0  0  0  0  0  0
  -85.5020   31.4847   -0.1651 C   0  0  0  0  0  0  0  0  0  0  0  0
  -84.2012   31.4352    0.2336 C   0  0  0  0  0  0  0  0  0  0  0  0
  -83.7898   30.4261    1.0687 C   0  0  0  0  0  0  0  0  0  0  0  0
  -84.7131   29.4926    1.4762 C   0  0  0  0  0  0  0  0  0  0  0  0
  -86.0510   29.5299    1.0765 C   0  0  0  0  0  0  0  0  0  0  0  0
  -83.1828   32.4382   -0.2001 C   0  0  0  0  0  0  0  0  0  0  0  0
  -83.4341   32.9143   -1.4415 F   0  0  0  0  0  0  0  0  0  0  0  0
  -81.9553   31.7968   -0.1109 F   0  0  0  0  0  0  0  0  0  0  0  0
  -83.1647   33.4312    0.7670 F   0  0  0  0  0  0  0  0  0  0  0  0
  -84.2132   28.4209    2.3954 C   0  0  0  0  0  0  0  0  0  0  0  0
  -82.8130   28.4469    2.4394 F   0  0  0  0  0  0  0  0  0  0  0  0
  -84.6852   28.7193    3.6472 F   0  0  0  0  0  0  0  0  0  0  0  0
  -84.5911   27.1540    2.0024 F   0  0  0  0  0  0  0  0  0  0  0  0
 10 11  3  0  0  0
 11  9  1  0  0  0
  9  3  1  0  0  0
  3  4  1  0  0  0
  4  5  1  0  0  0
  5  6  1  0  0  0
  6  2  1  0  0  0
  2  1  1  0  0  0
  1 18  1  0  0  0
 18 19  1  0  0  0
 19 20  1  0  0  0
 20 21  2  0  0  0
 21 22  1  0  0  0
 22 26  1  0  0  0
 26 27  1  0  0  0
 26 28  1  0  0  0
 26 29  1  0  0  0
 22 23  2  0  0  0
 23 24  1  0  0  0
 24 30  1  0  0  0
 30 31  1  0  0  0
 30 32  1  0  0  0
 30 33  1  0  0  0
 24 25  2  0  0  0
  2 12  1  0  0  0
 12 13  2  0  0  0
 13 14  1  0  0  0
 14 15  2  0  0  0
 15 16  1  0  0  0
 16 17  2  0  0  0
  6  7  1  0  0  0
  7  8  1  0  0  0
  8  3  1  0  0  0
 25 20  1  0  0  0
 17 12  1  0  0  0
M  END
> <minimizedAffinity>
-8.54802

> <CNNscore>
0.2946763337

> <CNNaffinity>
6.0571551323

> <CNN_VS>
1.7849003077

> <CNNaffinity_variance>
0.5794669986

$$$$
[H]c1c([H])c([H])c(C([H])(N2C([H])([H])C([H])([H])N(C([H])([H])C#N)C([H])([H])C2([H])[H])C([H])([H])OC([H])([H])c2c([H])c(C(F)(F)F)c([H])c(C(F)(F)F)c2[H])c([H])c1[H]


 33 35  0  0  0  0  0  0  0  0999 V2000
  -87.9411   31.4305   -1.5078 C   0  0  0  0  0  0  0  0  0  0  0  0
  -87.3641   32.7986   -1.3680 C   0  0  0  0  0  0  0  0  0  0  0  0
  -87.9608   34.8538   -4.9919 N   0  0  0  0  0  0  0  0  0  0  0  0
  -87.4994   35.5749   -3.8615 C   0  0  0  0  0  0  0  0  0  0  0  0
  -87.8618   34.8675   -2.5585 C   0  0  0  0  0  0  0  0  0  0  0  0
  -87.4359   33.5177   -2.5747 N   0  0  0  0  0  0  0  0  0  0  0  0
  -87.6867   32.7532   -3.7456 C   0  0  0  0  0  0  0  0  0  0  0  0
  -88.5110   33.5741   -4.7006 C   0  0  0  0  0  0  0  0  0  0  0  0
  -88.5331   35.5853   -6.0593 C   0  0  0  0  0  0  0  0  0  0  0  0
  -86.6372   36.9493   -7.3109 N   0  0  0  0  0  0  0  0  0  0  0  0
  -87.4726   36.3378   -6.7484 C   0  0  0  0  0  0  0  0  0  0  0  0
  -86.0113   32.7014   -0.7648 C   0  0  0  0  0  0  0  0  0  0  0  0
  -84.8666   33.1873   -1.3568 C   0  0  0  0  0  0  0  0  0  0  0  0
  -83.6201   33.0417   -0.7786 C   0  0  0  0  0  0  0  0  0  0  0  0
  -83.4621   32.3983    0.4262 C   0  0  0  0  0  0  0  0  0  0  0  0
  -84.6007   31.9058    1.0377 C   0  0  0  0  0  0  0  0  0  0  0  0
  -85.8415   32.0587    0.4457 C   0  0  0  0  0  0  0  0  0  0  0  0
  -87.0317   30.4305   -1.8427 O   0  0  0  0  0  0  0  0  0  0  0  0
  -87.7439   29.2367   -1.5617 C   0  0  0  0  0  0  0  0  0  0  0  0
  -87.5397   28.7246   -0.2212 C   0  0  0  0  0  0  0  0  0  0  0  0
  -86.2441   28.7284    0.3415 C   0  0  0  0  0  0  0  0  0  0  0  0
  -85.9836   28.2673    1.5956 C   0  0  0  0  0  0  0  0  0  0  0  0
  -87.0119   27.7744    2.3601 C   0  0  0  0  0  0  0  0  0  0  0  0
  -88.2794   27.7627    1.8280 C   0  0  0  0  0  0  0  0  0  0  0  0
  -88.5631   28.2325    0.5435 C   0  0  0  0  0  0  0  0  0  0  0  0
  -84.6133   28.2693    2.1905 C   0  0  0  0  0  0  0  0  0  0  0  0
  -84.1669   27.0172    2.4435 F   0  0  0  0  0  0  0  0  0  0  0  0
  -84.6968   29.0496    3.3351 F   0  0  0  0  0  0  0  0  0  0  0  0
  -83.7988   28.9672    1.3124 F   0  0  0  0  0  0  0  0  0  0  0  0
  -89.3650   27.2251    2.7088 C   0  0  0  0  0  0  0  0  0  0  0  0
  -89.2097   25.8412    2.8644 F   0  0  0  0  0  0  0  0  0  0  0  0
  -89.2075   27.8130    3.9370 F   0  0  0  0  0  0  0  0  0  0  0  0
  -90.6289   27.4450    2.2023 F   0  0  0  0  0  0  0  0  0  0  0  0
 10 11  3  0  0  0
 11  9  1  0  0  0
  9  3  1  0  0  0
  3  4  1  0  0  0
  4  5  1  0  0  0
  5  6  1  0  0  0
  6  2  1  0  0  0
  2  1  1  0  0  0
  1 18  1  0  0  0
 18 19  1  0  0  0
 19 20  1  0  0  0
 20 21  2  0  0  0
 21 22  1  0  0  0
 22 26  1  0  0  0
 26 27  1  0  0  0
 26 28  1  0  0  0
 26 29  1  0  0  0
 22 23  2  0  0  0
 23 24  1  0  0  0
 24 30  1  0  0  0
 30 31  1  0  0  0
 30 32  1  0  0  0
 30 33  1  0  0  0
 24 25  2  0  0  0
  2 12  1  0  0  0
 12 13  2  0  0  0
 13 14  1  0  0  0
 14 15  2  0  0  0
 15 16  1  0  0  0
 16 17  2  0  0  0
  6  7  1  0  0  0
  7  8  1  0  0  0
  8  3  1  0  0  0
 25 20  1  0  0  0
 17 12  1  0  0  0
M  END
> <minimizedAffinity>
-8.44316

> <CNNscore>
0.2920115888

> <CNNaffinity>
6.2357048988

> <CNN_VS>
1.8208980560

> <CNNaffinity_variance>
0.3393887877

$$$$
[H]c1c([H])c([H])c(C([H])(N2C([H])([H])C([H])([H])N(C([H])([H])C#N)C([H])([H])C2([H])[H])C([H])([H])OC([H])([H])c2c([H])c(C(F)(F)F)c([H])c(C(F)(F)F)c2[H])c([H])c1[H]


 33 35  0  0  0  0  0  0  0  0999 V2000
  -87.8714   31.3065   -1.4317 C   0  0  0  0  0  0  0  0  0  0  0  0
  -87.3310   32.6918   -1.3175 C   0  0  0  0  0  0  0  0  0  0  0  0
  -88.0335   34.7359   -4.9287 N   0  0  0  0  0  0  0  0  0  0  0  0
  -87.3778   35.4159   -3.8711 C   0  0  0  0  0  0  0  0  0  0  0  0
  -87.6912   34.7834   -2.5179 C   0  0  0  0  0  0  0  0  0  0  0  0
  -87.4354   33.3912   -2.5333 N   0  0  0  0  0  0  0  0  0  0  0  0
  -87.8923   32.6415   -3.6502 C   0  0  0  0  0  0  0  0  0  0  0  0
  -88.7025   33.5396   -4.5460 C   0  0  0  0  0  0  0  0  0  0  0  0
  -88.6168   35.5121   -5.9579 C   0  0  0  0  0  0  0  0  0  0  0  0
  -86.7222   36.8601   -7.2286 N   0  0  0  0  0  0  0  0  0  0  0  0
  -87.5571   36.2567   -6.6568 C   0  0  0  0  0  0  0  0  0  0  0  0
  -85.9697   32.6405   -0.7279 C   0  0  0  0  0  0  0  0  0  0  0  0
  -84.8411   33.1260   -1.3504 C   0  0  0  0  0  0  0  0  0  0  0  0
  -83.5855   33.0235   -0.7828 C   0  0  0  0  0  0  0  0  0  0  0  0
  -83.4016   32.4258    0.4416 C   0  0  0  0  0  0  0  0  0  0  0  0
  -84.5237   31.9345    1.0839 C   0  0  0  0  0  0  0  0  0  0  0  0
  -85.7740   32.0439    0.5021 C   0  0  0  0  0  0  0  0  0  0  0  0
  -86.9743   30.3532   -1.9068 O   0  0  0  0  0  0  0  0  0  0  0  0
  -87.5902   29.1247   -1.5560 C   0  0  0  0  0  0  0  0  0  0  0  0
  -87.2868   28.6699   -0.2136 C   0  0  0  0  0  0  0  0  0  0  0  0
  -88.3080   28.1076    0.5841 C   0  0  0  0  0  0  0  0  0  0  0  0
  -88.0906   27.6564    1.8500 C   0  0  0  0  0  0  0  0  0  0  0  0
  -86.8314   27.7437    2.3900 C   0  0  0  0  0  0  0  0  0  0  0  0
  -85.8255   28.2887    1.6278 C   0  0  0  0  0  0  0  0  0  0  0  0
  -86.0323   28.7555    0.3276 C   0  0  0  0  0  0  0  0  0  0  0  0
  -89.1705   27.0635    2.6948 C   0  0  0  0  0  0  0  0  0  0  0  0
  -88.9316   25.7642    2.9877 F   0  0  0  0  0  0  0  0  0  0  0  0
  -90.3501   27.2446    1.9864 F   0  0  0  0  0  0  0  0  0  0  0  0
  -89.2773   27.8619    3.8229 F   0  0  0  0  0  0  0  0  0  0  0  0
  -84.4698   28.3491    2.2615 C   0  0  0  0  0  0  0  0  0  0  0  0
  -83.5768   29.0154    1.4118 F   0  0  0  0  0  0  0  0  0  0  0  0
  -84.5999   29.0885    3.4083 F   0  0  0  0  0  0  0  0  0  0  0  0
  -83.9404   27.1024    2.5221 F   0  0  0  0  0  0  0  0  0  0  0  0
 10 11  3  0  0  0
 11  9  1  0  0  0
  9  3  1  0  0  0
  3  4  1  0  0  0
  4  5  1  0  0  0
  5  6  1  0  0  0
  6  2  1  0  0  0
  2  1  1  0  0  0
  1 18  1  0  0  0
 18 19  1  0  0  0
 19 20  1  0  0  0
 20 21  2  0  0  0
 21 22  1  0  0  0
 22 26  1  0  0  0
 26 27  1  0  0  0
 26 28  1  0  0  0
 26 29  1  0  0  0
 22 23  2  0  0  0
 23 24  1  0  0  0
 24 30  1  0  0  0
 30 31  1  0  0  0
 30 32  1  0  0  0
 30 33  1  0  0  0
 24 25  2  0  0  0
  2 12  1  0  0  0
 12 13  2  0  0  0
 13 14  1  0  0  0
 14 15  2  0  0  0
 15 16  1  0  0  0
 16 17  2  0  0  0
  6  7  1  0  0  0
  7  8  1  0  0  0
  8  3  1  0  0  0
 25 20  1  0  0  0
 17 12  1  0  0  0
M  END
> <minimizedAffinity>
-8.43741

> <CNNscore>
0.2894708216

> <CNNaffinity>
6.2021307945

> <CNN_VS>
1.7953358889

> <CNNaffinity_variance>
0.4234538972

$$$$
[H]c1c([H])c([H])c(C([H])(N2C([H])([H])C([H])([H])N(C([H])([H])C#N)C([H])([H])C2([H])[H])C([H])([H])OC([H])([H])c2c([H])c(C(F)(F)F)c([H])c(C(F)(F)F)c2[H])c([H])c1[H]


 33 35  0  0  0  0  0  0  0  0999 V2000
  -89.1175   28.1136    0.7507 C   0  0  0  0  0  0  0  0  0  0  0  0
  -89.1675   26.6930    1.2023 C   0  0  0  0  0  0  0  0  0  0  0  0
  -91.8747   24.1914   -0.8287 N   0  0  0  0  0  0  0  0  0  0  0  0
  -92.1445   25.5818   -0.7588 C   0  0  0  0  0  0  0  0  0  0  0  0
  -91.4317   26.2328    0.4234 C   0  0  0  0  0  0  0  0  0  0  0  0
  -90.0491   25.9295    0.4161 N   0  0  0  0  0  0  0  0  0  0  0  0
  -89.6624   24.5854    0.1669 C   0  0  0  0  0  0  0  0  0  0  0  0
  -90.8956   23.7256    0.0929 C   0  0  0  0  0  0  0  0  0  0  0  0
  -92.9452   23.3212   -1.1428 C   0  0  0  0  0  0  0  0  0  0  0  0
  -94.3581   22.8744    1.0538 N   0  0  0  0  0  0  0  0  0  0  0  0
  -93.7272   23.0624    0.0767 C   0  0  0  0  0  0  0  0  0  0  0  0
  -89.4202   26.6515    2.6644 C   0  0  0  0  0  0  0  0  0  0  0  0
  -89.3120   25.5140    3.4334 C   0  0  0  0  0  0  0  0  0  0  0  0
  -89.5941   25.5103    4.7860 C   0  0  0  0  0  0  0  0  0  0  0  0
  -90.0004   26.6527    5.4343 C   0  0  0  0  0  0  0  0  0  0  0  0
  -90.1123   27.8062    4.6793 C   0  0  0  0  0  0  0  0  0  0  0  0
  -89.8273   27.7935    3.3257 C   0  0  0  0  0  0  0  0  0  0  0  0
  -88.5793   28.3182   -0.5173 O   0  0  0  0  0  0  0  0  0  0  0  0
  -87.1839   28.1826   -0.3033 C   0  0  0  0  0  0  0  0  0  0  0  0
  -86.4768   29.4416   -0.1777 C   0  0  0  0  0  0  0  0  0  0  0  0
  -85.1914   29.4689    0.4071 C   0  0  0  0  0  0  0  0  0  0  0  0
  -84.4710   30.6151    0.5510 C   0  0  0  0  0  0  0  0  0  0  0  0
  -85.0010   31.8040    0.1146 C   0  0  0  0  0  0  0  0  0  0  0  0
  -86.2513   31.7959   -0.4568 C   0  0  0  0  0  0  0  0  0  0  0  0
  -87.0027   30.6286   -0.6120 C   0  0  0  0  0  0  0  0  0  0  0  0
  -83.1124   30.6449    1.1712 C   0  0  0  0  0  0  0  0  0  0  0  0
  -82.8489   29.5186    1.8734 F   0  0  0  0  0  0  0  0  0  0  0  0
  -83.0789   31.7871    1.9589 F   0  0  0  0  0  0  0  0  0  0  0  0
  -82.2096   30.8651    0.1426 F   0  0  0  0  0  0  0  0  0  0  0  0
  -86.7763   33.1180   -0.9255 C   0  0  0  0  0  0  0  0  0  0  0  0
  -88.1519   33.2006   -0.6718 F   0  0  0  0  0  0  0  0  0  0  0  0
  -86.1464   34.0818   -0.1817 F   0  0  0  0  0  0  0  0  0  0  0  0
  -86.5921   33.3229   -2.2770 F   0  0  0  0  0  0  0  0  0  0  0  0
 10 11  3  0  0  0
 11  9  1  0  0  0
  9  3  1  0  0  0
  3  4  1  0  0  0
  4  5  1  0  0  0
  5  6  1  0  0  0
  6  2  1  0  0  0
  2  1  1  0  0  0
  1 18  1  0  0  0
 18 19  1  0  0  0
 19 20  1  0  0  0
 20 21  2  0  0  0
 21 22  1  0  0  0
 22 26  1  0  0  0
 26 27  1  0  0  0
 26 28  1  0  0  0
 26 29  1  0  0  0
 22 23  2  0  0  0
 23 24  1  0  0  0
 24 30  1  0  0  0
 30 31  1  0  0  0
 30 32  1  0  0  0
 30 33  1  0  0  0
 24 25  2  0  0  0
  2 12  1  0  0  0
 12 13  2  0  0  0
 13 14  1  0  0  0
 14 15  2  0  0  0
 15 16  1  0  0  0
 16 17  2  0  0  0
  6  7  1  0  0  0
  7  8  1  0  0  0
  8  3  1  0  0  0
 25 20  1  0  0  0
 17 12  1  0  0  0
M  END
> <minimizedAffinity>
-9.11749

> <CNNscore>
0.2851062715

> <CNNaffinity>
5.9227781296

> <CNN_VS>
1.6886211634

> <CNNaffinity_variance>
0.4285725057

$$$$
[H]OC(=O)c1c([H])c([H])c([H])c(O[H])c1C(=O)c1c(O[H])c([H])c(C(=O)OC([H])([H])[C@]2([H])C([H])([H])C([H])([H])C([H])([H])[C@@]2([H])N([H])C(=O)c2c([H])c([H])c(O[H])c([H])c2[H])c([H])c1O[H]


 45 48  0  0  0  0  0  0  0  0999 V2000
  -88.3786   30.6538   -3.2404 C   0  0  0  0  0  0  0  0  0  0  0  0
  -88.1902   31.7221   -2.4155 C   0  0  0  0  0  0  0  0  0  0  0  0
  -87.5052   31.5921   -1.1993 C   0  0  0  0  0  0  0  0  0  0  0  0
  -87.3695   32.7361   -0.4516 O   0  0  0  0  0  0  0  0  0  0  0  0
  -86.9938   30.3831   -0.7826 C   0  0  0  0  0  0  0  0  0  0  0  0
  -87.1931   29.2895   -1.6369 C   0  0  0  0  0  0  0  0  0  0  0  0
  -86.7238   28.0022   -1.3170 O   0  0  0  0  0  0  0  0  0  0  0  0
  -87.8677   29.4480   -2.8242 C   0  0  0  0  0  0  0  0  0  0  0  0
  -86.9246   32.9088    0.4001 H   0  0  0  0  0  0  0  0  0  0  0  0
  -86.8755   27.2450   -1.9354 H   0  0  0  0  0  0  0  0  0  0  0  0
  -89.0974   30.7772   -4.5290 C   0  0  0  0  0  0  0  0  0  0  0  0
  -88.4230   31.0126   -5.5399 O   0  0  0  0  0  0  0  0  0  0  0  0
  -90.4056   30.6420   -4.5974 O   0  0  0  0  0  0  0  0  0  0  0  0
  -91.5345   30.6733   -3.8679 C   0  0  0  0  0  0  0  0  0  0  0  0
  -92.7343   29.5451   -2.0875 C   0  0  0  0  0  0  0  0  0  0  0  0
  -94.2291   29.4457   -2.2728 C   0  0  0  0  0  0  0  0  0  0  0  0
  -94.4997   28.8763   -3.6232 C   0  0  0  0  0  0  0  0  0  0  0  0
  -93.1766   28.8382   -4.3759 C   0  0  0  0  0  0  0  0  0  0  0  0
  -92.1538   29.3803   -3.4964 C   0  0  0  0  0  0  0  0  0  0  0  0
  -90.5831   29.9605   -0.4603 O   0  0  0  0  0  0  0  0  0  0  0  0
  -91.1267   28.8212   -0.3663 C   0  0  0  0  0  0  0  0  0  0  0  0
  -92.2359   28.5367   -1.1729 N   0  0  0  0  0  0  0  0  0  0  0  0
  -92.7030   27.5946   -1.1147 H   0  0  0  0  0  0  0  0  0  0  0  0
  -90.5773   27.8751    0.5655 C   0  0  0  0  0  0  0  0  0  0  0  0
  -90.4726   28.1868    1.8983 C   0  0  0  0  0  0  0  0  0  0  0  0
  -89.9384   27.2757    2.8128 C   0  0  0  0  0  0  0  0  0  0  0  0
  -89.5117   26.0480    2.3698 C   0  0  0  0  0  0  0  0  0  0  0  0
  -88.9748   25.1227    3.2681 O   0  0  0  0  0  0  0  0  0  0  0  0
  -89.6178   25.7367    1.0301 C   0  0  0  0  0  0  0  0  0  0  0  0
  -90.1426   26.6279    0.1221 C   0  0  0  0  0  0  0  0  0  0  0  0
  -89.5505   24.4530    3.7438 H   0  0  0  0  0  0  0  0  0  0  0  0
  -86.4270   30.1089    0.4974 C   0  0  0  0  0  0  0  0  0  0  0  0
  -87.3398   29.9582    1.4303 O   0  0  0  0  0  0  0  0  0  0  0  0
  -85.0683   29.9534    0.9472 C   0  0  0  0  0  0  0  0  0  0  0  0
  -84.2281   31.0395    0.5896 C   0  0  0  0  0  0  0  0  0  0  0  0
  -84.7616   32.1094   -0.1150 O   0  0  0  0  0  0  0  0  0  0  0  0
  -82.9072   31.0731    0.9138 C   0  0  0  0  0  0  0  0  0  0  0  0
  -82.4099   29.9998    1.6109 C   0  0  0  0  0  0  0  0  0  0  0  0
  -83.1895   28.9439    1.9637 C   0  0  0  0  0  0  0  0  0  0  0  0
  -84.5757   28.8947    1.6259 C   0  0  0  0  0  0  0  0  0  0  0  0
  -84.1562   32.8727   -0.3619 H   0  0  0  0  0  0  0  0  0  0  0  0
  -85.2507   27.6365    1.8509 C   0  0  0  0  0  0  0  0  0  0  0  0
  -84.6034   26.7252    2.4710 O   0  0  0  0  0  0  0  0  0  0  0  0
  -86.4997   27.2939    1.4713 O   0  0  0  0  0  0  0  0  0  0  0  0
  -86.8927   26.3745    1.4320 H   0  0  0  0  0  0  0  0  0  0  0  0
 20 21  2  0  0  0
 21 22  1  0  0  0
 22 15  1  0  0  0
 15 16  1  0  0  0
 16 17  1  0  0  0
 17 18  1  0  0  0
 18 19  1  0  0  0
 19 14  1  0  0  0
 14 13  1  0  0  0
 13 11  1  0  0  0
 11 12  2  0  0  0
 11  1  1  0  0  0
  1  2  2  0  0  0
  2  3  1  0  0  0
  3  4  1  0  0  0
  3  5  2  0  0  0
  5 32  1  0  0  0
 32 33  2  0  0  0
 32 34  1  0  0  0
 34 35  2  0  0  0
 35 36  1  0  0  0
 35 37  1  0  0  0
 37 38  2  0  0  0
 38 39  1  0  0  0
 39 40  2  0  0  0
 40 42  1  0  0  0
 42 43  2  0  0  0
 42 44  1  0  0  0
  5  6  1  0  0  0
  6  7  1  0  0  0
  6  8  2  0  0  0
 21 24  1  0  0  0
 24 25  2  0  0  0
 25 26  1  0  0  0
 26 27  2  0  0  0
 27 28  1  0  0  0
 27 29  1  0  0  0
 29 30  2  0  0  0
 19 15  1  0  0  0
  8  1  1  0  0  0
 30 24  1  0  0  0
 40 34  1  0  0  0
 22 23  1  0  0  0
  4  9  1  0  0  0
 36 41  1  0  0  0
 44 45  1  0  0  0
  7 10  1  0  0  0
 28 31  1  0  0  0
M  END
> <minimizedAffinity>
-9.35832

> <CNNscore>
0.2279916704

> <CNNaffinity>
5.7658381462

> <CNN_VS>
1.3145630360

> <CNNaffinity_variance>
0.1799456924

$$$$
[H]OC(=O)c1c([H])c([H])c([H])c(O[H])c1C(=O)c1c(O[H])c([H])c(C(=O)OC([H])([H])[C@]2([H])C([H])([H])C([H])([H])C([H])([H])[C@@]2([H])N([H])C(=O)c2c([H])c([H])c(O[H])c([H])c2[H])c([H])c1O[H]


 45 48  0  0  0  0  0  0  0  0999 V2000
  -89.1061   30.2489   -3.1624 C   0  0  0  0  0  0  0  0  0  0  0  0
  -89.5826   30.8001   -2.0108 C   0  0  0  0  0  0  0  0  0  0  0  0
  -89.9686   30.0011   -0.9255 C   0  0  0  0  0  0  0  0  0  0  0  0
  -90.4282   30.6645    0.1858 O   0  0  0  0  0  0  0  0  0  0  0  0
  -89.8858   28.6272   -0.9729 C   0  0  0  0  0  0  0  0  0  0  0  0
  -89.3956   28.0688   -2.1618 C   0  0  0  0  0  0  0  0  0  0  0  0
  -89.2718   26.6777   -2.3329 O   0  0  0  0  0  0  0  0  0  0  0  0
  -89.0234   28.8780   -3.2089 C   0  0  0  0  0  0  0  0  0  0  0  0
  -90.7277   30.3444    1.0582 H   0  0  0  0  0  0  0  0  0  0  0  0
  -88.9227   26.3057   -3.1805 H   0  0  0  0  0  0  0  0  0  0  0  0
  -88.6920   31.0806   -4.3154 C   0  0  0  0  0  0  0  0  0  0  0  0
  -87.6631   30.7498   -4.9189 O   0  0  0  0  0  0  0  0  0  0  0  0
  -89.3917   32.1332   -4.6849 O   0  0  0  0  0  0  0  0  0  0  0  0
  -89.3821   33.4770   -4.7252 C   0  0  0  0  0  0  0  0  0  0  0  0
  -87.2158   34.4304   -4.1952 C   0  0  0  0  0  0  0  0  0  0  0  0
  -87.1079   35.9274   -4.3561 C   0  0  0  0  0  0  0  0  0  0  0  0
  -88.2329   36.5635   -3.6139 C   0  0  0  0  0  0  0  0  0  0  0  0
  -89.1811   35.4527   -3.1829 C   0  0  0  0  0  0  0  0  0  0  0  0
  -88.6352   34.1952   -3.6669 C   0  0  0  0  0  0  0  0  0  0  0  0
  -87.8114   33.4576   -1.7159 O   0  0  0  0  0  0  0  0  0  0  0  0
  -86.5868   33.4262   -2.0350 C   0  0  0  0  0  0  0  0  0  0  0  0
  -86.2070   33.9108   -3.2930 N   0  0  0  0  0  0  0  0  0  0  0  0
  -85.1937   33.8979   -3.5797 H   0  0  0  0  0  0  0  0  0  0  0  0
  -85.6460   32.8935   -1.0883 C   0  0  0  0  0  0  0  0  0  0  0  0
  -84.3408   33.3189   -1.0849 C   0  0  0  0  0  0  0  0  0  0  0  0
  -83.4170   32.8066   -0.1705 C   0  0  0  0  0  0  0  0  0  0  0  0
  -83.8229   31.8620    0.7398 C   0  0  0  0  0  0  0  0  0  0  0  0
  -82.9149   31.3373    1.6626 O   0  0  0  0  0  0  0  0  0  0  0  0
  -85.1349   31.4359    0.7348 C   0  0  0  0  0  0  0  0  0  0  0  0
  -86.0517   31.9349   -0.1622 C   0  0  0  0  0  0  0  0  0  0  0  0
  -82.7745   31.7572    2.5627 H   0  0  0  0  0  0  0  0  0  0  0  0
  -90.3975   27.7222    0.0038 C   0  0  0  0  0  0  0  0  0  0  0  0
  -91.4345   27.0439   -0.4329 O   0  0  0  0  0  0  0  0  0  0  0  0
  -89.9885   27.4071    1.3477 C   0  0  0  0  0  0  0  0  0  0  0  0
  -90.7514   28.0749    2.3405 C   0  0  0  0  0  0  0  0  0  0  0  0
  -91.7812   28.9206    1.9531 O   0  0  0  0  0  0  0  0  0  0  0  0
  -90.5102   27.9167    3.6700 C   0  0  0  0  0  0  0  0  0  0  0  0
  -89.4848   27.0735    4.0207 C   0  0  0  0  0  0  0  0  0  0  0  0
  -88.7348   26.4235    3.0921 C   0  0  0  0  0  0  0  0  0  0  0  0
  -88.9751   26.5843    1.6941 C   0  0  0  0  0  0  0  0  0  0  0  0
  -92.3143   29.3873    2.6658 H   0  0  0  0  0  0  0  0  0  0  0  0
  -87.9841   26.0284    0.8006 C   0  0  0  0  0  0  0  0  0  0  0  0
  -86.8438   26.6044    0.7565 O   0  0  0  0  0  0  0  0  0  0  0  0
  -88.1190   24.9626   -0.0163 O   0  0  0  0  0  0  0  0  0  0  0  0
  -87.5273   24.7035   -0.7805 H   0  0  0  0  0  0  0  0  0  0  0  0
 20 21  2  0  0  0
 21 22  1  0  0  0
 22 15  1  0  0  0
 15 16  1  0  0  0
 16 17  1  0  0  0
 17 18  1  0  0  0
 18 19  1  0  0  0
 19 14  1  0  0  0
 14 13  1  0  0  0
 13 11  1  0  0  0
 11 12  2  0  0  0
 11  1  1  0  0  0
  1  2  2  0  0  0
  2  3  1  0  0  0
  3  4  1  0  0  0
  3  5  2  0  0  0
  5 32  1  0  0  0
 32 33  2  0  0  0
 32 34  1  0  0  0
 34 35  2  0  0  0
 35 36  1  0  0  0
 35 37  1  0  0  0
 37 38  2  0  0  0
 38 39  1  0  0  0
 39 40  2  0  0  0
 40 42  1  0  0  0
 42 43  2  0  0  0
 42 44  1  0  0  0
  5  6  1  0  0  0
  6  7  1  0  0  0
  6  8  2  0  0  0
 21 24  1  0  0  0
 24 25  2  0  0  0
 25 26  1  0  0  0
 26 27  2  0  0  0
 27 28  1  0  0  0
 27 29  1  0  0  0
 29 30  2  0  0  0
 19 15  1  0  0  0
  8  1  1  0  0  0
 30 24  1  0  0  0
 40 34  1  0  0  0
 22 23  1  0  0  0
  4  9  1  0  0  0
 36 41  1  0  0  0
 44 45  1  0  0  0
  7 10  1  0  0  0
 28 31  1  0  0  0
M  END
> <minimizedAffinity>
-10.06941

> <CNNscore>
0.2128816992

> <CNNaffinity>
6.1029729843

> <CNN_VS>
1.2992112637

> <CNNaffinity_variance>
0.2619490623

$$$$
[H]OC(=O)c1c([H])c([H])c([H])c(O[H])c1C(=O)c1c(O[H])c([H])c(C(=O)OC([H])([H])[C@]2([H])C([H])([H])C([H])([H])C([H])([H])[C@@]2([H])N([H])C(=O)c2c([H])c([H])c(O[H])c([H])c2[H])c([H])c1O[H]


 45 48  0  0  0  0  0  0  0  0999 V2000
  -86.7064   27.7031    1.6201 C   0  0  0  0  0  0  0  0  0  0  0  0
  -87.7258   27.2588    2.4077 C   0  0  0  0  0  0  0  0  0  0  0  0
  -88.9797   26.9413    1.8670 C   0  0  0  0  0  0  0  0  0  0  0  0
  -89.9303   26.4976    2.7533 O   0  0  0  0  0  0  0  0  0  0  0  0
  -89.2388   27.0644    0.5200 C   0  0  0  0  0  0  0  0  0  0  0  0
  -88.1847   27.5231   -0.2825 C   0  0  0  0  0  0  0  0  0  0  0  0
  -88.3300   27.6969   -1.6712 O   0  0  0  0  0  0  0  0  0  0  0  0
  -86.9655   27.8253    0.2762 C   0  0  0  0  0  0  0  0  0  0  0  0
  -90.8506   26.1979    2.6257 H   0  0  0  0  0  0  0  0  0  0  0  0
  -87.5722   28.0214   -2.2181 H   0  0  0  0  0  0  0  0  0  0  0  0
  -85.3762   28.0392    2.1772 C   0  0  0  0  0  0  0  0  0  0  0  0
  -84.5757   27.1104    2.3464 O   0  0  0  0  0  0  0  0  0  0  0  0
  -85.0566   29.2799    2.4816 O   0  0  0  0  0  0  0  0  0  0  0  0
  -84.3277   30.3368    2.0825 C   0  0  0  0  0  0  0  0  0  0  0  0
  -85.2911   31.6630    0.2950 C   0  0  0  0  0  0  0  0  0  0  0  0
  -84.4988   32.8828   -0.1086 C   0  0  0  0  0  0  0  0  0  0  0  0
  -83.0925   32.4654   -0.3722 C   0  0  0  0  0  0  0  0  0  0  0  0
  -82.9497   31.0229    0.0944 C   0  0  0  0  0  0  0  0  0  0  0  0
  -84.2351   30.6034    0.6286 C   0  0  0  0  0  0  0  0  0  0  0  0
  -87.5680   33.0146   -0.3659 O   0  0  0  0  0  0  0  0  0  0  0  0
  -87.3355   31.9720   -1.0451 C   0  0  0  0  0  0  0  0  0  0  0  0
  -86.1844   31.2266   -0.7602 N   0  0  0  0  0  0  0  0  0  0  0  0
  -85.9713   30.3538   -1.3097 H   0  0  0  0  0  0  0  0  0  0  0  0
  -88.2661   31.6051   -2.0768 C   0  0  0  0  0  0  0  0  0  0  0  0
  -89.6157   31.5857   -1.8262 C   0  0  0  0  0  0  0  0  0  0  0  0
  -90.5295   31.2287   -2.8209 C   0  0  0  0  0  0  0  0  0  0  0  0
  -90.0686   30.8923   -4.0699 C   0  0  0  0  0  0  0  0  0  0  0  0
  -90.9658   30.5327   -5.0785 O   0  0  0  0  0  0  0  0  0  0  0  0
  -88.7121   30.9125   -4.3198 C   0  0  0  0  0  0  0  0  0  0  0  0
  -87.8047   31.2628   -3.3460 C   0  0  0  0  0  0  0  0  0  0  0  0
  -91.3616   31.2128   -5.7005 H   0  0  0  0  0  0  0  0  0  0  0  0
  -90.5134   26.9240   -0.1049 C   0  0  0  0  0  0  0  0  0  0  0  0
  -91.3486   27.8797    0.2346 O   0  0  0  0  0  0  0  0  0  0  0  0
  -91.0415   25.9582   -1.0329 C   0  0  0  0  0  0  0  0  0  0  0  0
  -91.4518   26.5271   -2.2663 C   0  0  0  0  0  0  0  0  0  0  0  0
  -91.3053   27.8923   -2.4684 O   0  0  0  0  0  0  0  0  0  0  0  0
  -91.9882   25.7792   -3.2682 C   0  0  0  0  0  0  0  0  0  0  0  0
  -92.1199   24.4321   -3.0373 C   0  0  0  0  0  0  0  0  0  0  0  0
  -91.7393   23.8598   -1.8647 C   0  0  0  0  0  0  0  0  0  0  0  0
  -91.1791   24.6342   -0.8043 C   0  0  0  0  0  0  0  0  0  0  0  0
  -91.5992   28.2828   -3.3465 H   0  0  0  0  0  0  0  0  0  0  0  0
  -91.0203   23.9671    0.4681 C   0  0  0  0  0  0  0  0  0  0  0  0
  -92.0516   23.8794    1.2182 O   0  0  0  0  0  0  0  0  0  0  0  0
  -89.8945   23.4240    0.9771 O   0  0  0  0  0  0  0  0  0  0  0  0
  -89.7238   23.1561    1.9260 H   0  0  0  0  0  0  0  0  0  0  0  0
 20 21  2  0  0  0
 21 22  1  0  0  0
 22 15  1  0  0  0
 15 16  1  0  0  0
 16 17  1  0  0  0
 17 18  1  0  0  0
 18 19  1  0  0  0
 19 14  1  0  0  0
 14 13  1  0  0  0
 13 11  1  0  0  0
 11 12  2  0  0  0
 11  1  1  0  0  0
  1  2  2  0  0  0
  2  3  1  0  0  0
  3  4  1  0  0  0
  3  5  2  0  0  0
  5 32  1  0  0  0
 32 33  2  0  0  0
 32 34  1  0  0  0
 34 35  2  0  0  0
 35 36  1  0  0  0
 35 37  1  0  0  0
 37 38  2  0  0  0
 38 39  1  0  0  0
 39 40  2  0  0  0
 40 42  1  0  0  0
 42 43  2  0  0  0
 42 44  1  0  0  0
  5  6  1  0  0  0
  6  7  1  0  0  0
  6  8  2  0  0  0
 21 24  1  0  0  0
 24 25  2  0  0  0
 25 26  1  0  0  0
 26 27  2  0  0  0
 27 28  1  0  0  0
 27 29  1  0  0  0
 29 30  2  0  0  0
 19 15  1  0  0  0
  8  1  1  0  0  0
 30 24  1  0  0  0
 40 34  1  0  0  0
 22 23  1  0  0  0
  4  9  1  0  0  0
 36 41  1  0  0  0
 44 45  1  0  0  0
  7 10  1  0  0  0
 28 31  1  0  0  0
M  END
> <minimizedAffinity>
-9.17800

> <CNNscore>
0.1857340485

> <CNNaffinity>
6.0968017578

> <CNN_VS>
1.1323837042

> <CNNaffinity_variance>
0.2956525385

$$$$
[H]OC(=O)c1c([H])c([H])c([H])c(O[H])c1C(=O)c1c(O[H])c([H])c(C(=O)OC([H])([H])[C@]2([H])C([H])([H])C([H])([H])C([H])([H])[C@@]2([H])N([H])C(=O)c2c([H])c([H])c(O[H])c([H])c2[H])c([H])c1O[H]


 45 48  0  0  0  0  0  0  0  0999 V2000
  -88.8579   32.1307   -3.9241 C   0  0  0  0  0  0  0  0  0  0  0  0
  -90.0178   32.8399   -4.0169 C   0  0  0  0  0  0  0  0  0  0  0  0
  -90.0125   34.2399   -4.0894 C   0  0  0  0  0  0  0  0  0  0  0  0
  -91.2396   34.8492   -4.1864 O   0  0  0  0  0  0  0  0  0  0  0  0
  -88.8394   34.9610   -4.0691 C   0  0  0  0  0  0  0  0  0  0  0  0
  -87.6510   34.2233   -3.9724 C   0  0  0  0  0  0  0  0  0  0  0  0
  -86.3906   34.8476   -3.9351 O   0  0  0  0  0  0  0  0  0  0  0  0
  -87.6877   32.8508   -3.9043 C   0  0  0  0  0  0  0  0  0  0  0  0
  -91.4962   35.7873   -4.2719 H   0  0  0  0  0  0  0  0  0  0  0  0
  -85.5649   34.3069   -3.8672 H   0  0  0  0  0  0  0  0  0  0  0  0
  -88.8484   30.6519   -3.8499 C   0  0  0  0  0  0  0  0  0  0  0  0
  -87.7972   30.0709   -4.1491 O   0  0  0  0  0  0  0  0  0  0  0  0
  -89.9185   29.9795   -3.4797 O   0  0  0  0  0  0  0  0  0  0  0  0
  -90.3671   29.0549   -2.6128 C   0  0  0  0  0  0  0  0  0  0  0  0
  -89.1255   29.2099   -0.5352 C   0  0  0  0  0  0  0  0  0  0  0  0
  -89.6740   28.3961    0.6118 C   0  0  0  0  0  0  0  0  0  0  0  0
  -89.8724   26.9953    0.1431 C   0  0  0  0  0  0  0  0  0  0  0  0
  -89.6693   26.9860   -1.3660 C   0  0  0  0  0  0  0  0  0  0  0  0
  -89.3689   28.3473   -1.7784 C   0  0  0  0  0  0  0  0  0  0  0  0
  -88.1677   31.7651   -0.4947 O   0  0  0  0  0  0  0  0  0  0  0  0
  -87.3012   30.8549   -0.3429 C   0  0  0  0  0  0  0  0  0  0  0  0
  -87.7206   29.5185   -0.3543 N   0  0  0  0  0  0  0  0  0  0  0  0
  -87.0177   28.7437   -0.2331 H   0  0  0  0  0  0  0  0  0  0  0  0
  -85.9279   31.2393   -0.1660 C   0  0  0  0  0  0  0  0  0  0  0  0
  -85.5074   32.5031   -0.4986 C   0  0  0  0  0  0  0  0  0  0  0  0
  -84.1744   32.8872   -0.3327 C   0  0  0  0  0  0  0  0  0  0  0  0
  -83.2708   31.9847    0.1720 C   0  0  0  0  0  0  0  0  0  0  0  0
  -81.9335   32.3491    0.3458 O   0  0  0  0  0  0  0  0  0  0  0  0
  -83.6954   30.7153    0.5057 C   0  0  0  0  0  0  0  0  0  0  0  0
  -85.0065   30.3281    0.3456 C   0  0  0  0  0  0  0  0  0  0  0  0
  -81.6033   32.7534    1.2023 H   0  0  0  0  0  0  0  0  0  0  0  0
  -88.7289   36.3801   -3.9759 C   0  0  0  0  0  0  0  0  0  0  0  0
  -88.3144   36.7763   -2.7938 O   0  0  0  0  0  0  0  0  0  0  0  0
  -88.9669   37.4391   -4.9218 C   0  0  0  0  0  0  0  0  0  0  0  0
  -90.2627   38.0078   -4.8173 C   0  0  0  0  0  0  0  0  0  0  0  0
  -91.1404   37.5295   -3.8547 O   0  0  0  0  0  0  0  0  0  0  0  0
  -90.6821   39.0135   -5.6319 C   0  0  0  0  0  0  0  0  0  0  0  0
  -89.7904   39.4646   -6.5737 C   0  0  0  0  0  0  0  0  0  0  0  0
  -88.5443   38.9366   -6.6997 C   0  0  0  0  0  0  0  0  0  0  0  0
  -88.0939   37.8784   -5.8540 C   0  0  0  0  0  0  0  0  0  0  0  0
  -92.0550   37.9410   -3.7906 H   0  0  0  0  0  0  0  0  0  0  0  0
  -86.8463   37.2466   -6.2195 C   0  0  0  0  0  0  0  0  0  0  0  0
  -86.8281   36.5632   -7.2995 O   0  0  0  0  0  0  0  0  0  0  0  0
  -85.6785   37.2804   -5.5437 O   0  0  0  0  0  0  0  0  0  0  0  0
  -84.8849   36.6843   -5.6710 H   0  0  0  0  0  0  0  0  0  0  0  0
 20 21  2  0  0  0
 21 22  1  0  0  0
 22 15  1  0  0  0
 15 16  1  0  0  0
 16 17  1  0  0  0
 17 18  1  0  0  0
 18 19  1  0  0  0
 19 14  1  0  0  0
 14 13  1  0  0  0
 13 11  1  0  0  0
 11 12  2  0  0  0
 11  1  1  0  0  0
  1  2  2  0  0  0
  2  3  1  0  0  0
  3  4  1  0  0  0
  3  5  2  0  0  0
  5 32  1  0  0  0
 32 33  2  0  0  0
 32 34  1  0  0  0
 34 35  2  0  0  0
 35 36  1  0  0  0
 35 37  1  0  0  0
 37 38  2  0  0  0
 38 39  1  0  0  0
 39 40  2  0  0  0
 40 42  1  0  0  0
 42 43  2  0  0  0
 42 44  1  0  0  0
  5  6  1  0  0  0
  6  7  1  0  0  0
  6  8  2  0  0  0
 21 24  1  0  0  0
 24 25  2  0  0  0
 25 26  1  0  0  0
 26 27  2  0  0  0
 27 28  1  0  0  0
 27 29  1  0  0  0
 29 30  2  0  0  0
 19 15  1  0  0  0
  8  1  1  0  0  0
 30 24  1  0  0  0
 40 34  1  0  0  0
 22 23  1  0  0  0
  4  9  1  0  0  0
 36 41  1  0  0  0
 44 45  1  0  0  0
  7 10  1  0  0  0
 28 31  1  0  0  0
M  END
> <minimizedAffinity>
-9.04685

> <CNNscore>
0.1297576129

> <CNNaffinity>
5.6493525505

> <CNN_VS>
0.7330464721

> <CNNaffinity_variance>
0.3293026090

$$$$
[H]OC(=O)c1c([H])c([H])c([H])c(O[H])c1C(=O)c1c(O[H])c([H])c(C(=O)OC([H])([H])[C@]2([H])C([H])([H])C([H])([H])C([H])([H])[C@@]2([H])N([H])C(=O)c2c([H])c([H])c(O[H])c([H])c2[H])c([H])c1O[H]


 45 48  0  0  0  0  0  0  0  0999 V2000
  -86.5603   27.2859    1.7023 C   0  0  0  0  0  0  0  0  0  0  0  0
  -86.7666   26.6931    0.4927 C   0  0  0  0  0  0  0  0  0  0  0  0
  -88.0227   26.1831    0.1356 C   0  0  0  0  0  0  0  0  0  0  0  0
  -88.1164   25.6126   -1.1103 O   0  0  0  0  0  0  0  0  0  0  0  0
  -89.1021   26.2560    0.9878 C   0  0  0  0  0  0  0  0  0  0  0  0
  -88.8805   26.8664    2.2303 C   0  0  0  0  0  0  0  0  0  0  0  0
  -89.9033   26.9933    3.1881 O   0  0  0  0  0  0  0  0  0  0  0  0
  -87.6378   27.3586    2.5519 C   0  0  0  0  0  0  0  0  0  0  0  0
  -88.8685   25.2168   -1.5906 H   0  0  0  0  0  0  0  0  0  0  0  0
  -89.7243   27.4284    4.0585 H   0  0  0  0  0  0  0  0  0  0  0  0
  -85.2400   27.8315    2.0915 C   0  0  0  0  0  0  0  0  0  0  0  0
  -84.3633   27.0240    2.4253 O   0  0  0  0  0  0  0  0  0  0  0  0
  -85.0069   29.1276    2.0832 O   0  0  0  0  0  0  0  0  0  0  0  0
  -85.4234   30.2969    1.5666 C   0  0  0  0  0  0  0  0  0  0  0  0
  -85.2316   32.1997    0.0750 C   0  0  0  0  0  0  0  0  0  0  0  0
  -83.9349   32.9672    0.1643 C   0  0  0  0  0  0  0  0  0  0  0  0
  -82.8063   32.0016    0.0412 C   0  0  0  0  0  0  0  0  0  0  0  0
  -83.3959   30.5994    0.1106 C   0  0  0  0  0  0  0  0  0  0  0  0
  -84.8335   30.7339    0.2803 C   0  0  0  0  0  0  0  0  0  0  0  0
  -87.9082   31.7993   -0.2767 O   0  0  0  0  0  0  0  0  0  0  0  0
  -87.2745   32.1850   -1.3024 C   0  0  0  0  0  0  0  0  0  0  0  0
  -85.8961   32.4094   -1.1964 N   0  0  0  0  0  0  0  0  0  0  0  0
  -85.3469   32.7275   -2.0368 H   0  0  0  0  0  0  0  0  0  0  0  0
  -88.0031   32.3738   -2.5266 C   0  0  0  0  0  0  0  0  0  0  0  0
  -88.8144   33.4683   -2.6956 C   0  0  0  0  0  0  0  0  0  0  0  0
  -89.5288   33.6610   -3.8806 C   0  0  0  0  0  0  0  0  0  0  0  0
  -89.4165   32.7397   -4.8926 C   0  0  0  0  0  0  0  0  0  0  0  0
  -90.1223   32.9141   -6.0854 O   0  0  0  0  0  0  0  0  0  0  0  0
  -88.6008   31.6406   -4.7208 C   0  0  0  0  0  0  0  0  0  0  0  0
  -87.8933   31.4425   -3.5570 C   0  0  0  0  0  0  0  0  0  0  0  0
  -89.7326   33.4167   -6.8611 H   0  0  0  0  0  0  0  0  0  0  0  0
  -90.3695   25.6317    0.7909 C   0  0  0  0  0  0  0  0  0  0  0  0
  -91.3505   26.5011    0.7023 O   0  0  0  0  0  0  0  0  0  0  0  0
  -90.7658   24.2541    0.6578 C   0  0  0  0  0  0  0  0  0  0  0  0
  -91.1517   23.9033   -0.6619 C   0  0  0  0  0  0  0  0  0  0  0  0
  -91.1048   24.8635   -1.6627 O   0  0  0  0  0  0  0  0  0  0  0  0
  -91.5699   22.6503   -0.9873 C   0  0  0  0  0  0  0  0  0  0  0  0
  -91.6050   21.7233    0.0251 C   0  0  0  0  0  0  0  0  0  0  0  0
  -91.2451   22.0312    1.2990 C   0  0  0  0  0  0  0  0  0  0  0  0
  -90.8086   23.3432    1.6541 C   0  0  0  0  0  0  0  0  0  0  0  0
  -91.3802   24.6024   -2.5932 H   0  0  0  0  0  0  0  0  0  0  0  0
  -90.6673   23.6164    3.0664 C   0  0  0  0  0  0  0  0  0  0  0  0
  -91.7316   23.6153    3.7744 O   0  0  0  0  0  0  0  0  0  0  0  0
  -89.5308   23.8880    3.7418 O   0  0  0  0  0  0  0  0  0  0  0  0
  -89.4472   24.2819    4.6578 H   0  0  0  0  0  0  0  0  0  0  0  0
 20 21  2  0  0  0
 21 22  1  0  0  0
 22 15  1  0  0  0
 15 16  1  0  0  0
 16 17  1  0  0  0
 17 18  1  0  0  0
 18 19  1  0  0  0
 19 14  1  0  0  0
 14 13  1  0  0  0
 13 11  1  0  0  0
 11 12  2  0  0  0
 11  1  1  0  0  0
  1  2  2  0  0  0
  2  3  1  0  0  0
  3  4  1  0  0  0
  3  5  2  0  0  0
  5 32  1  0  0  0
 32 33  2  0  0  0
 32 34  1  0  0  0
 34 35  2  0  0  0
 35 36  1  0  0  0
 35 37  1  0  0  0
 37 38  2  0  0  0
 38 39  1  0  0  0
 39 40  2  0  0  0
 40 42  1  0  0  0
 42 43  2  0  0  0
 42 44  1  0  0  0
  5  6  1  0  0  0
  6  7  1  0  0  0
  6  8  2  0  0  0
 21 24  1  0  0  0
 24 25  2  0  0  0
 25 26  1  0  0  0
 26 27  2  0  0  0
 27 28  1  0  0  0
 27 29  1  0  0  0
 29 30  2  0  0  0
 19 15  1  0  0  0
  8  1  1  0  0  0
 30 24  1  0  0  0
 40 34  1  0  0  0
 22 23  1  0  0  0
  4  9  1  0  0  0
 36 41  1  0  0  0
 44 45  1  0  0  0
  7 10  1  0  0  0
 28 31  1  0  0  0
M  END
> <minimizedAffinity>
-9.93787

> <CNNscore>
0.1276721209

> <CNNaffinity>
5.8051519394

> <CNN_VS>
0.7411560416

> <CNNaffinity_variance>
0.3866618276

$$$$
[H]OC(=O)c1c([H])c([H])c([H])c(O[H])c1C(=O)c1c(O[H])c([H])c(C(=O)OC([H])([H])[C@]2([H])C([H])([H])C([H])([H])C([H])([H])[C@@]2([H])N([H])C(=O)c2c([H])c([H])c(O[H])c([H])c2[H])c([H])c1O[H]


 45 48  0  0  0  0  0  0  0  0999 V2000
  -86.6508   27.7039    1.8282 C   0  0  0  0  0  0  0  0  0  0  0  0
  -87.2761   28.5993    1.0130 C   0  0  0  0  0  0  0  0  0  0  0  0
  -88.5945   28.3957    0.5820 C   0  0  0  0  0  0  0  0  0  0  0  0
  -89.1256   29.3660   -0.2320 O   0  0  0  0  0  0  0  0  0  0  0  0
  -89.3158   27.2850    0.9599 C   0  0  0  0  0  0  0  0  0  0  0  0
  -88.6644   26.3688    1.7976 C   0  0  0  0  0  0  0  0  0  0  0  0
  -89.2948   25.1930    2.2445 O   0  0  0  0  0  0  0  0  0  0  0  0
  -87.3713   26.5962    2.2051 C   0  0  0  0  0  0  0  0  0  0  0  0
  -90.0088   29.4658   -0.6358 H   0  0  0  0  0  0  0  0  0  0  0  0
  -88.8159   24.5607    2.8358 H   0  0  0  0  0  0  0  0  0  0  0  0
  -85.2599   27.9076    2.2935 C   0  0  0  0  0  0  0  0  0  0  0  0
  -84.4846   26.9459    2.2168 O   0  0  0  0  0  0  0  0  0  0  0  0
  -84.8625   29.0685    2.7716 O   0  0  0  0  0  0  0  0  0  0  0  0
  -84.4610   30.3020    2.4183 C   0  0  0  0  0  0  0  0  0  0  0  0
  -84.7399   31.8303    0.5558 C   0  0  0  0  0  0  0  0  0  0  0  0
  -83.5952   32.7864    0.3229 C   0  0  0  0  0  0  0  0  0  0  0  0
  -82.3302   32.0008    0.2605 C   0  0  0  0  0  0  0  0  0  0  0  0
  -82.6561   30.5765    0.6894 C   0  0  0  0  0  0  0  0  0  0  0  0
  -84.0740   30.5254    1.0063 C   0  0  0  0  0  0  0  0  0  0  0  0
  -86.2887   33.8130   -0.5015 O   0  0  0  0  0  0  0  0  0  0  0  0
  -86.3117   32.7114   -1.1246 C   0  0  0  0  0  0  0  0  0  0  0  0
  -85.5415   31.6474   -0.6382 N   0  0  0  0  0  0  0  0  0  0  0  0
  -85.5468   30.7203   -1.1378 H   0  0  0  0  0  0  0  0  0  0  0  0
  -87.1285   32.6077   -2.3024 C   0  0  0  0  0  0  0  0  0  0  0  0
  -87.7782   31.4360   -2.6017 C   0  0  0  0  0  0  0  0  0  0  0  0
  -88.5732   31.3232   -3.7450 C   0  0  0  0  0  0  0  0  0  0  0  0
  -88.7064   32.4034   -4.5824 C   0  0  0  0  0  0  0  0  0  0  0  0
  -89.4969   32.3113   -5.7304 O   0  0  0  0  0  0  0  0  0  0  0  0
  -88.0527   33.5799   -4.2798 C   0  0  0  0  0  0  0  0  0  0  0  0
  -87.2675   33.7001   -3.1559 C   0  0  0  0  0  0  0  0  0  0  0  0
  -90.4738   32.5385   -5.7186 H   0  0  0  0  0  0  0  0  0  0  0  0
  -90.5939   26.9035    0.4543 C   0  0  0  0  0  0  0  0  0  0  0  0
  -91.5792   27.2912    1.2321 O   0  0  0  0  0  0  0  0  0  0  0  0
  -91.0001   26.2000   -0.7344 C   0  0  0  0  0  0  0  0  0  0  0  0
  -91.4236   24.8689   -0.4849 C   0  0  0  0  0  0  0  0  0  0  0  0
  -91.4231   24.3870    0.8165 O   0  0  0  0  0  0  0  0  0  0  0  0
  -91.8343   24.0388   -1.4814 C   0  0  0  0  0  0  0  0  0  0  0  0
  -91.8233   24.5452   -2.7577 C   0  0  0  0  0  0  0  0  0  0  0  0
  -91.4193   25.8147   -3.0274 C   0  0  0  0  0  0  0  0  0  0  0  0
  -90.9822   26.6940   -1.9912 C   0  0  0  0  0  0  0  0  0  0  0  0
  -91.7258   23.4428    0.9800 H   0  0  0  0  0  0  0  0  0  0  0  0
  -90.3677   27.9328   -2.4124 C   0  0  0  0  0  0  0  0  0  0  0  0
  -89.1942   27.8655   -2.9145 O   0  0  0  0  0  0  0  0  0  0  0  0
  -90.8847   29.1768   -2.3301 O   0  0  0  0  0  0  0  0  0  0  0  0
  -90.3957   30.0454   -2.4173 H   0  0  0  0  0  0  0  0  0  0  0  0
 20 21  2  0  0  0
 21 22  1  0  0  0
 22 15  1  0  0  0
 15 16  1  0  0  0
 16 17  1  0  0  0
 17 18  1  0  0  0
 18 19  1  0  0  0
 19 14  1  0  0  0
 14 13  1  0  0  0
 13 11  1  0  0  0
 11 12  2  0  0  0
 11  1  1  0  0  0
  1  2  2  0  0  0
  2  3  1  0  0  0
  3  4  1  0  0  0
  3  5  2  0  0  0
  5 32  1  0  0  0
 32 33  2  0  0  0
 32 34  1  0  0  0
 34 35  2  0  0  0
 35 36  1  0  0  0
 35 37  1  0  0  0
 37 38  2  0  0  0
 38 39  1  0  0  0
 39 40  2  0  0  0
 40 42  1  0  0  0
 42 43  2  0  0  0
 42 44  1  0  0  0
  5  6  1  0  0  0
  6  7  1  0  0  0
  6  8  2  0  0  0
 21 24  1  0  0  0
 24 25  2  0  0  0
 25 26  1  0  0  0
 26 27  2  0  0  0
 27 28  1  0  0  0
 27 29  1  0  0  0
 29 30  2  0  0  0
 19 15  1  0  0  0
  8  1  1  0  0  0
 30 24  1  0  0  0
 40 34  1  0  0  0
 22 23  1  0  0  0
  4  9  1  0  0  0
 36 41  1  0  0  0
 44 45  1  0  0  0
  7 10  1  0  0  0
 28 31  1  0  0  0
M  END
> <minimizedAffinity>
-9.46731

> <CNNscore>
0.1209958866

> <CNNaffinity>
6.0286788940

> <CNN_VS>
0.7294453382

> <CNNaffinity_variance>
0.2413904965

$$$$
[H]OC(=O)c1c([H])c([H])c([H])c(O[H])c1C(=O)c1c(O[H])c([H])c(C(=O)OC([H])([H])[C@]2([H])C([H])([H])C([H])([H])C([H])([H])[C@@]2([H])N([H])C(=O)c2c([H])c([H])c(O[H])c([H])c2[H])c([H])c1O[H]


 45 48  0  0  0  0  0  0  0  0999 V2000
  -88.0057   30.2063   -2.8493 C   0  0  0  0  0  0  0  0  0  0  0  0
  -87.5721   31.2071   -2.0322 C   0  0  0  0  0  0  0  0  0  0  0  0
  -86.9591   30.9299   -0.8023 C   0  0  0  0  0  0  0  0  0  0  0  0
  -86.5566   32.0160   -0.0642 O   0  0  0  0  0  0  0  0  0  0  0  0
  -86.7685   29.6384   -0.3636 C   0  0  0  0  0  0  0  0  0  0  0  0
  -87.2186   28.6154   -1.2100 C   0  0  0  0  0  0  0  0  0  0  0  0
  -87.0867   27.2569   -0.8681 O   0  0  0  0  0  0  0  0  0  0  0  0
  -87.8148   28.9180   -2.4112 C   0  0  0  0  0  0  0  0  0  0  0  0
  -86.0960   32.0860    0.7937 H   0  0  0  0  0  0  0  0  0  0  0  0
  -87.4112   26.5516   -1.4812 H   0  0  0  0  0  0  0  0  0  0  0  0
  -88.6519   30.4843   -4.1523 C   0  0  0  0  0  0  0  0  0  0  0  0
  -87.9198   30.8093   -5.0960 O   0  0  0  0  0  0  0  0  0  0  0  0
  -89.9569   30.3899   -4.3017 O   0  0  0  0  0  0  0  0  0  0  0  0
  -91.1310   30.5419   -3.6647 C   0  0  0  0  0  0  0  0  0  0  0  0
  -92.5895   29.7014   -1.9186 C   0  0  0  0  0  0  0  0  0  0  0  0
  -94.0462   29.5749   -2.2938 C   0  0  0  0  0  0  0  0  0  0  0  0
  -94.1399   28.8044   -3.5661 C   0  0  0  0  0  0  0  0  0  0  0  0
  -92.7266   28.6507   -4.1117 C   0  0  0  0  0  0  0  0  0  0  0  0
  -91.8236   29.3215   -3.1907 C   0  0  0  0  0  0  0  0  0  0  0  0
  -90.4702   30.2032   -0.2740 O   0  0  0  0  0  0  0  0  0  0  0  0
  -91.1423   29.1667    0.0024 C   0  0  0  0  0  0  0  0  0  0  0  0
  -92.2443   28.8458   -0.8004 N   0  0  0  0  0  0  0  0  0  0  0  0
  -92.8168   27.9868   -0.5920 H   0  0  0  0  0  0  0  0  0  0  0  0
  -90.7401   28.3700    1.1287 C   0  0  0  0  0  0  0  0  0  0  0  0
  -91.0938   28.7338    2.4043 C   0  0  0  0  0  0  0  0  0  0  0  0
  -90.7067   27.9680    3.5069 C   0  0  0  0  0  0  0  0  0  0  0  0
  -89.9604   26.8323    3.3099 C   0  0  0  0  0  0  0  0  0  0  0  0
  -89.5635   26.0526    4.3989 O   0  0  0  0  0  0  0  0  0  0  0  0
  -89.6060   26.4684    2.0273 C   0  0  0  0  0  0  0  0  0  0  0  0
  -89.9828   27.2167    0.9353 C   0  0  0  0  0  0  0  0  0  0  0  0
  -90.1291   25.2991    4.7431 H   0  0  0  0  0  0  0  0  0  0  0  0
  -86.3068   29.2516    0.9294 C   0  0  0  0  0  0  0  0  0  0  0  0
  -87.2832   29.1482    1.8025 O   0  0  0  0  0  0  0  0  0  0  0  0
  -84.9978   28.9437    1.4437 C   0  0  0  0  0  0  0  0  0  0  0  0
  -84.8978   27.6355    1.9842 C   0  0  0  0  0  0  0  0  0  0  0  0
  -86.0076   26.8027    1.9610 O   0  0  0  0  0  0  0  0  0  0  0  0
  -83.7450   27.1613    2.5293 C   0  0  0  0  0  0  0  0  0  0  0  0
  -82.6652   28.0095    2.5371 C   0  0  0  0  0  0  0  0  0  0  0  0
  -82.7324   29.2688    2.0303 C   0  0  0  0  0  0  0  0  0  0  0  0
  -83.9370   29.7795    1.4594 C   0  0  0  0  0  0  0  0  0  0  0  0
  -85.9236   25.8784    2.3465 H   0  0  0  0  0  0  0  0  0  0  0  0
  -83.9602   31.1931    1.1585 C   0  0  0  0  0  0  0  0  0  0  0  0
  -84.3811   31.9815    2.0725 O   0  0  0  0  0  0  0  0  0  0  0  0
  -83.5956   31.7948    0.0068 O   0  0  0  0  0  0  0  0  0  0  0  0
  -83.8045   32.7293   -0.2837 H   0  0  0  0  0  0  0  0  0  0  0  0
 20 21  2  0  0  0
 21 22  1  0  0  0
 22 15  1  0  0  0
 15 16  1  0  0  0
 16 17  1  0  0  0
 17 18  1  0  0  0
 18 19  1  0  0  0
 19 14  1  0  0  0
 14 13  1  0  0  0
 13 11  1  0  0  0
 11 12  2  0  0  0
 11  1  1  0  0  0
  1  2  2  0  0  0
  2  3  1  0  0  0
  3  4  1  0  0  0
  3  5  2  0  0  0
  5 32  1  0  0  0
 32 33  2  0  0  0
 32 34  1  0  0  0
 34 35  2  0  0  0
 35 36  1  0  0  0
 35 37  1  0  0  0
 37 38  2  0  0  0
 38 39  1  0  0  0
 39 40  2  0  0  0
 40 42  1  0  0  0
 42 43  2  0  0  0
 42 44  1  0  0  0
  5  6  1  0  0  0
  6  7  1  0  0  0
  6  8  2  0  0  0
 21 24  1  0  0  0
 24 25  2  0  0  0
 25 26  1  0  0  0
 26 27  2  0  0  0
 27 28  1  0  0  0
 27 29  1  0  0  0
 29 30  2  0  0  0
 19 15  1  0  0  0
  8  1  1  0  0  0
 30 24  1  0  0  0
 40 34  1  0  0  0
 22 23  1  0  0  0
  4  9  1  0  0  0
 36 41  1  0  0  0
 44 45  1  0  0  0
  7 10  1  0  0  0
 28 31  1  0  0  0
M  END
> <minimizedAffinity>
-9.83149

> <CNNscore>
0.1115368009

> <CNNaffinity>
5.5138945580

> <CNN_VS>
0.6150021553

> <CNNaffinity_variance>
0.4564572275

$$$$
[H]OC(=O)c1c([H])c([H])c([H])c(O[H])c1C(=O)c1c(O[H])c([H])c(C(=O)OC([H])([H])[C@]2([H])C([H])([H])C([H])([H])C([H])([H])[C@@]2([H])N([H])C(=O)c2c([H])c([H])c(O[H])c([H])c2[H])c([H])c1O[H]


 45 48  0  0  0  0  0  0  0  0999 V2000
  -86.7136   27.7759    1.7143 C   0  0  0  0  0  0  0  0  0  0  0  0
  -87.4537   28.7856    1.1759 C   0  0  0  0  0  0  0  0  0  0  0  0
  -88.7559   28.5645    0.7062 C   0  0  0  0  0  0  0  0  0  0  0  0
  -89.4102   29.6558    0.1894 O   0  0  0  0  0  0  0  0  0  0  0  0
  -89.3452   27.3212    0.7658 C   0  0  0  0  0  0  0  0  0  0  0  0
  -88.5762   26.2882    1.3202 C   0  0  0  0  0  0  0  0  0  0  0  0
  -89.0662   24.9737    1.4282 O   0  0  0  0  0  0  0  0  0  0  0  0
  -87.3023   26.5357    1.7737 C   0  0  0  0  0  0  0  0  0  0  0  0
  -90.3109   29.7649   -0.1712 H   0  0  0  0  0  0  0  0  0  0  0  0
  -88.5060   24.2605    1.8234 H   0  0  0  0  0  0  0  0  0  0  0  0
  -85.3382   27.9956    2.2169 C   0  0  0  0  0  0  0  0  0  0  0  0
  -84.5895   27.0122    2.2829 O   0  0  0  0  0  0  0  0  0  0  0  0
  -84.9268   29.1925    2.5807 O   0  0  0  0  0  0  0  0  0  0  0  0
  -84.2053   30.2545    2.1816 C   0  0  0  0  0  0  0  0  0  0  0  0
  -85.0944   31.6118    0.3789 C   0  0  0  0  0  0  0  0  0  0  0  0
  -84.2428   32.7897   -0.0283 C   0  0  0  0  0  0  0  0  0  0  0  0
  -82.8564   32.3042   -0.2803 C   0  0  0  0  0  0  0  0  0  0  0  0
  -82.7849   30.8600    0.1972 C   0  0  0  0  0  0  0  0  0  0  0  0
  -84.0917   30.5059    0.7265 C   0  0  0  0  0  0  0  0  0  0  0  0
  -87.2416   33.1175   -0.3761 O   0  0  0  0  0  0  0  0  0  0  0  0
  -87.0826   32.0354   -1.0134 C   0  0  0  0  0  0  0  0  0  0  0  0
  -86.0012   31.2105   -0.6786 N   0  0  0  0  0  0  0  0  0  0  0  0
  -85.8501   30.3038   -1.1926 H   0  0  0  0  0  0  0  0  0  0  0  0
  -88.0214   31.7072   -2.0507 C   0  0  0  0  0  0  0  0  0  0  0  0
  -87.9410   30.5070   -2.7121 C   0  0  0  0  0  0  0  0  0  0  0  0
  -88.8471   30.1782   -3.7235 C   0  0  0  0  0  0  0  0  0  0  0  0
  -89.8343   31.0712   -4.0603 C   0  0  0  0  0  0  0  0  0  0  0  0
  -90.7502   30.7615   -5.0685 O   0  0  0  0  0  0  0  0  0  0  0  0
  -89.9134   32.2768   -3.3944 C   0  0  0  0  0  0  0  0  0  0  0  0
  -89.0252   32.6092   -2.3969 C   0  0  0  0  0  0  0  0  0  0  0  0
  -91.6138   30.2909   -4.8712 H   0  0  0  0  0  0  0  0  0  0  0  0
  -90.5911   26.9546    0.1757 C   0  0  0  0  0  0  0  0  0  0  0  0
  -91.4565   26.5130    1.0601 O   0  0  0  0  0  0  0  0  0  0  0  0
  -91.0744   26.9920   -1.1800 C   0  0  0  0  0  0  0  0  0  0  0  0
  -91.9230   28.0978   -1.4458 C   0  0  0  0  0  0  0  0  0  0  0  0
  -92.1909   29.0089   -0.4338 O   0  0  0  0  0  0  0  0  0  0  0  0
  -92.4895   28.3015   -2.6658 C   0  0  0  0  0  0  0  0  0  0  0  0
  -92.2050   27.3826   -3.6455 C   0  0  0  0  0  0  0  0  0  0  0  0
  -91.3990   26.3118   -3.4192 C   0  0  0  0  0  0  0  0  0  0  0  0
  -90.8020   26.0846   -2.1425 C   0  0  0  0  0  0  0  0  0  0  0  0
  -92.7930   29.7879   -0.6350 H   0  0  0  0  0  0  0  0  0  0  0  0
  -90.1521   24.8076   -1.9518 C   0  0  0  0  0  0  0  0  0  0  0  0
  -90.8623   23.8500   -1.4908 O   0  0  0  0  0  0  0  0  0  0  0  0
  -88.8612   24.4974   -2.1948 O   0  0  0  0  0  0  0  0  0  0  0  0
  -88.3576   23.6953   -1.8722 H   0  0  0  0  0  0  0  0  0  0  0  0
 20 21  2  0  0  0
 21 22  1  0  0  0
 22 15  1  0  0  0
 15 16  1  0  0  0
 16 17  1  0  0  0
 17 18  1  0  0  0
 18 19  1  0  0  0
 19 14  1  0  0  0
 14 13  1  0  0  0
 13 11  1  0  0  0
 11 12  2  0  0  0
 11  1  1  0  0  0
  1  2  2  0  0  0
  2  3  1  0  0  0
  3  4  1  0  0  0
  3  5  2  0  0  0
  5 32  1  0  0  0
 32 33  2  0  0  0
 32 34  1  0  0  0
 34 35  2  0  0  0
 35 36  1  0  0  0
 35 37  1  0  0  0
 37 38  2  0  0  0
 38 39  1  0  0  0
 39 40  2  0  0  0
 40 42  1  0  0  0
 42 43  2  0  0  0
 42 44  1  0  0  0
  5  6  1  0  0  0
  6  7  1  0  0  0
  6  8  2  0  0  0
 21 24  1  0  0  0
 24 25  2  0  0  0
 25 26  1  0  0  0
 26 27  2  0  0  0
 27 28  1  0  0  0
 27 29  1  0  0  0
 29 30  2  0  0  0
 19 15  1  0  0  0
  8  1  1  0  0  0
 30 24  1  0  0  0
 40 34  1  0  0  0
 22 23  1  0  0  0
  4  9  1  0  0  0
 36 41  1  0  0  0
 44 45  1  0  0  0
  7 10  1  0  0  0
 28 31  1  0  0  0
M  END
> <minimizedAffinity>
-9.65784

> <CNNscore>
0.0953062400

> <CNNaffinity>
5.6727395058

> <CNN_VS>
0.5406474471

> <CNNaffinity_variance>
0.7255411148

$$$$
[H]OC(=O)c1c([H])c([H])c([H])c(O[H])c1C(=O)c1c(O[H])c([H])c(C(=O)OC([H])([H])[C@]2([H])C([H])([H])C([H])([H])C([H])([H])[C@@]2([H])N([H])C(=O)c2c([H])c([H])c(O[H])c([H])c2[H])c([H])c1O[H]


 45 48  0  0  0  0  0  0  0  0999 V2000
  -86.1884   27.5450    1.6648 C   0  0  0  0  0  0  0  0  0  0  0  0
  -87.2641   27.0755    2.3573 C   0  0  0  0  0  0  0  0  0  0  0  0
  -88.4353   26.6736    1.7001 C   0  0  0  0  0  0  0  0  0  0  0  0
  -89.4533   26.2116    2.4979 O   0  0  0  0  0  0  0  0  0  0  0  0
  -88.5533   26.7356    0.3294 C   0  0  0  0  0  0  0  0  0  0  0  0
  -87.4424   27.2209   -0.3748 C   0  0  0  0  0  0  0  0  0  0  0  0
  -87.4453   27.3380   -1.7770 O   0  0  0  0  0  0  0  0  0  0  0  0
  -86.3067   27.6062    0.2972 C   0  0  0  0  0  0  0  0  0  0  0  0
  -90.3388   25.8596    2.2857 H   0  0  0  0  0  0  0  0  0  0  0  0
  -86.6496   27.6826   -2.2532 H   0  0  0  0  0  0  0  0  0  0  0  0
  -84.9441   27.9701    2.3457 C   0  0  0  0  0  0  0  0  0  0  0  0
  -84.0826   27.1061    2.5543 O   0  0  0  0  0  0  0  0  0  0  0  0
  -84.7606   29.2205    2.7159 O   0  0  0  0  0  0  0  0  0  0  0  0
  -84.5079   30.4578    2.2546 C   0  0  0  0  0  0  0  0  0  0  0  0
  -85.2232   31.7607    0.3381 C   0  0  0  0  0  0  0  0  0  0  0  0
  -84.2871   32.8686   -0.0802 C   0  0  0  0  0  0  0  0  0  0  0  0
  -82.9183   32.2980   -0.2291 C   0  0  0  0  0  0  0  0  0  0  0  0
  -82.9524   30.8800    0.3248 C   0  0  0  0  0  0  0  0  0  0  0  0
  -84.3033   30.6240    0.7972 C   0  0  0  0  0  0  0  0  0  0  0  0
  -87.4622   33.1533   -0.3657 O   0  0  0  0  0  0  0  0  0  0  0  0
  -87.2257   32.1167   -1.0526 C   0  0  0  0  0  0  0  0  0  0  0  0
  -86.0932   31.3512   -0.7468 N   0  0  0  0  0  0  0  0  0  0  0  0
  -85.8774   30.4829   -1.3023 H   0  0  0  0  0  0  0  0  0  0  0  0
  -88.1328   31.7769   -2.1141 C   0  0  0  0  0  0  0  0  0  0  0  0
  -89.2340   32.5561   -2.3689 C   0  0  0  0  0  0  0  0  0  0  0  0
  -90.1236   32.2342   -3.3969 C   0  0  0  0  0  0  0  0  0  0  0  0
  -89.8913   31.1198   -4.1649 C   0  0  0  0  0  0  0  0  0  0  0  0
  -90.7686   30.7808   -5.1977 O   0  0  0  0  0  0  0  0  0  0  0  0
  -88.7842   30.3382   -3.9073 C   0  0  0  0  0  0  0  0  0  0  0  0
  -87.9025   30.6475   -2.8967 C   0  0  0  0  0  0  0  0  0  0  0  0
  -90.6418   31.1229   -6.1321 H   0  0  0  0  0  0  0  0  0  0  0  0
  -89.7447   26.5064   -0.4209 C   0  0  0  0  0  0  0  0  0  0  0  0
  -90.0766   25.2358   -0.4630 O   0  0  0  0  0  0  0  0  0  0  0  0
  -90.6438   27.3916   -1.1143 C   0  0  0  0  0  0  0  0  0  0  0  0
  -90.7413   27.1211   -2.5039 C   0  0  0  0  0  0  0  0  0  0  0  0
  -90.0105   26.0734   -3.0463 O   0  0  0  0  0  0  0  0  0  0  0  0
  -91.5309   27.8559   -3.3330 C   0  0  0  0  0  0  0  0  0  0  0  0
  -92.2410   28.8852   -2.7658 C   0  0  0  0  0  0  0  0  0  0  0  0
  -92.1647   29.1702   -1.4390 C   0  0  0  0  0  0  0  0  0  0  0  0
  -91.3367   28.4095   -0.5595 C   0  0  0  0  0  0  0  0  0  0  0  0
  -90.0886   25.8919   -4.0316 H   0  0  0  0  0  0  0  0  0  0  0  0
  -91.1590   28.9349    0.7753 C   0  0  0  0  0  0  0  0  0  0  0  0
  -90.4999   30.0236    0.8952 O   0  0  0  0  0  0  0  0  0  0  0  0
  -91.6018   28.4032    1.9341 O   0  0  0  0  0  0  0  0  0  0  0  0
  -91.3083   28.6370    2.8617 H   0  0  0  0  0  0  0  0  0  0  0  0
 20 21  2  0  0  0
 21 22  1  0  0  0
 22 15  1  0  0  0
 15 16  1  0  0  0
 16 17  1  0  0  0
 17 18  1  0  0  0
 18 19  1  0  0  0
 19 14  1  0  0  0
 14 13  1  0  0  0
 13 11  1  0  0  0
 11 12  2  0  0  0
 11  1  1  0  0  0
  1  2  2  0  0  0
  2  3  1  0  0  0
  3  4  1  0  0  0
  3  5  2  0  0  0
  5 32  1  0  0  0
 32 33  2  0  0  0
 32 34  1  0  0  0
 34 35  2  0  0  0
 35 36  1  0  0  0
 35 37  1  0  0  0
 37 38  2  0  0  0
 38 39  1  0  0  0
 39 40  2  0  0  0
 40 42  1  0  0  0
 42 43  2  0  0  0
 42 44  1  0  0  0
  5  6  1  0  0  0
  6  7  1  0  0  0
  6  8  2  0  0  0
 21 24  1  0  0  0
 24 25  2  0  0  0
 25 26  1  0  0  0
 26 27  2  0  0  0
 27 28  1  0  0  0
 27 29  1  0  0  0
 29 30  2  0  0  0
 19 15  1  0  0  0
  8  1  1  0  0  0
 30 24  1  0  0  0
 40 34  1  0  0  0
 22 23  1  0  0  0
  4  9  1  0  0  0
 36 41  1  0  0  0
 44 45  1  0  0  0
  7 10  1  0  0  0
 28 31  1  0  0  0
M  END
> <minimizedAffinity>
-9.31889

> <CNNscore>
0.0937037021

> <CNNaffinity>
5.6900815964

> <CNN_VS>
0.5331817269

> <CNNaffinity_variance>
0.7761240005

$$$$
[H]OC(=O)C([H])([H])C([H])([H])c1c2c(n([H])c1C([H])=C1C(=O)N([H])c3c([H])c([H])c(S(=O)(=O)N([H])C([H])([H])[H])c([H])c31)C([H])([H])C([H])([H])C([H])([H])C2=O


 35 38  0  0  0  0  0  0  0  0999 V2000
  -85.6431   28.6546    1.3440 C   0  0  0  0  0  0  0  0  0  0  0  0
  -84.3847   28.8268    1.8795 C   0  0  0  0  0  0  0  0  0  0  0  0
  -83.6474   29.9560    1.6183 C   0  0  0  0  0  0  0  0  0  0  0  0
  -84.1385   30.9805    0.7992 C   0  0  0  0  0  0  0  0  0  0  0  0
  -85.3944   30.8140    0.2616 C   0  0  0  0  0  0  0  0  0  0  0  0
  -86.1145   29.6550    0.5479 C   0  0  0  0  0  0  0  0  0  0  0  0
  -85.7600   31.9807   -0.5684 C   0  0  0  0  0  0  0  0  0  0  0  0
  -86.8935   32.1518   -1.1987 C   0  0  0  0  0  0  0  0  0  0  0  0
  -84.5939   32.8433   -0.4609 C   0  0  0  0  0  0  0  0  0  0  0  0
  -84.4308   33.9681   -0.9993 O   0  0  0  0  0  0  0  0  0  0  0  0
  -83.6058   32.2193    0.3796 N   0  0  0  0  0  0  0  0  0  0  0  0
  -82.6734   32.5889    0.6420 H   0  0  0  0  0  0  0  0  0  0  0  0
  -87.2766   33.2821   -2.0213 C   0  0  0  0  0  0  0  0  0  0  0  0
  -86.6404   34.3832   -2.4154 N   0  0  0  0  0  0  0  0  0  0  0  0
  -87.4364   35.1668   -3.1682 C   0  0  0  0  0  0  0  0  0  0  0  0
  -88.6652   34.5523   -3.2799 C   0  0  0  0  0  0  0  0  0  0  0  0
  -88.5620   33.3796   -2.5652 C   0  0  0  0  0  0  0  0  0  0  0  0
  -89.6963   35.2193   -4.0547 C   0  0  0  0  0  0  0  0  0  0  0  0
  -90.5661   34.5012   -4.6053 O   0  0  0  0  0  0  0  0  0  0  0  0
  -89.7494   36.7000   -4.2103 C   0  0  0  0  0  0  0  0  0  0  0  0
  -88.5251   37.2983   -3.5036 C   0  0  0  0  0  0  0  0  0  0  0  0
  -87.2798   36.4796   -3.8661 C   0  0  0  0  0  0  0  0  0  0  0  0
  -85.6689   34.6360   -2.2123 H   0  0  0  0  0  0  0  0  0  0  0  0
  -89.6505   32.4122   -2.4255 C   0  0  0  0  0  0  0  0  0  0  0  0
  -89.3466   31.0521   -3.0123 C   0  0  0  0  0  0  0  0  0  0  0  0
  -89.2835   31.2151   -4.4804 C   0  0  0  0  0  0  0  0  0  0  0  0
  -88.2612   30.9048   -5.1206 O   0  0  0  0  0  0  0  0  0  0  0  0
  -90.3765   31.7202   -5.1552 O   0  0  0  0  0  0  0  0  0  0  0  0
  -90.7864   32.6256   -4.9679 H   0  0  0  0  0  0  0  0  0  0  0  0
  -86.6053   27.2396    1.6634 S   0  0  0  0  0  0  0  0  0  0  0  0
  -85.7805   26.3261    2.5262 O   0  0  0  0  0  0  0  0  0  0  0  0
  -86.9361   26.5163    0.4071 O   0  0  0  0  0  0  0  0  0  0  0  0
  -89.2108   27.6062    1.6427 C   0  0  0  0  0  0  0  0  0  0  0  0
  -88.0525   27.5914    2.5167 N   0  0  0  0  0  0  0  0  0  0  0  0
  -87.9936   28.4084    3.1280 H   0  0  0  0  0  0  0  0  0  0  0  0
 33 34  1  0  0  0
 34 30  1  0  0  0
 30 31  2  0  0  0
 30 32  2  0  0  0
 30  1  1  0  0  0
  1  2  2  0  0  0
  2  3  1  0  0  0
  3  4  2  0  0  0
  4  5  1  0  0  0
  5  6  2  0  0  0
  5  7  1  0  0  0
  7  8  2  0  0  0
  8 13  1  0  0  0
 13 14  1  0  0  0
 14 15  1  0  0  0
 15 16  2  0  0  0
 16 17  1  0  0  0
 17 24  1  0  0  0
 24 25  1  0  0  0
 25 26  1  0  0  0
 26 27  2  0  0  0
 26 28  1  0  0  0
 16 18  1  0  0  0
 18 19  2  0  0  0
 18 20  1  0  0  0
 20 21  1  0  0  0
 21 22  1  0  0  0
  7  9  1  0  0  0
  9 10  2  0  0  0
  9 11  1  0  0  0
  6  1  1  0  0  0
 17 13  2  0  0  0
 11  4  1  0  0  0
 22 15  1  0  0  0
 34 35  1  0  0  0
 14 23  1  0  0  0
 28 29  1  0  0  0
 11 12  1  0  0  0
M  END
> <minimizedAffinity>
-9.19854

> <CNNscore>
0.7532022595

> <CNNaffinity>
6.9546518326

> <CNN_VS>
5.2382593155

> <CNNaffinity_variance>
0.0868693292

$$$$
[H]OC(=O)C([H])([H])C([H])([H])c1c2c(n([H])c1C([H])=C1C(=O)N([H])c3c([H])c([H])c(S(=O)(=O)N([H])C([H])([H])[H])c([H])c31)C([H])([H])C([H])([H])C([H])([H])C2=O


 35 38  0  0  0  0  0  0  0  0999 V2000
  -84.5778   30.3185    1.3002 C   0  0  0  0  0  0  0  0  0  0  0  0
  -83.5276   31.2066    1.3909 C   0  0  0  0  0  0  0  0  0  0  0  0
  -83.4673   32.3230    0.5927 C   0  0  0  0  0  0  0  0  0  0  0  0
  -84.4664   32.6092   -0.3462 C   0  0  0  0  0  0  0  0  0  0  0  0
  -85.5174   31.7260   -0.4413 C   0  0  0  0  0  0  0  0  0  0  0  0
  -85.5460   30.6030    0.3845 C   0  0  0  0  0  0  0  0  0  0  0  0
  -86.4788   32.1756   -1.4696 C   0  0  0  0  0  0  0  0  0  0  0  0
  -87.5980   31.5788   -1.7900 C   0  0  0  0  0  0  0  0  0  0  0  0
  -85.8847   33.4078   -1.9636 C   0  0  0  0  0  0  0  0  0  0  0  0
  -86.3429   34.1656   -2.8566 O   0  0  0  0  0  0  0  0  0  0  0  0
  -84.6506   33.6634   -1.2678 N   0  0  0  0  0  0  0  0  0  0  0  0
  -84.0030   34.4621   -1.4002 H   0  0  0  0  0  0  0  0  0  0  0  0
  -88.5560   31.9947   -2.7952 C   0  0  0  0  0  0  0  0  0  0  0  0
  -88.4456   32.6588   -3.9439 N   0  0  0  0  0  0  0  0  0  0  0  0
  -89.6468   32.8297   -4.5290 C   0  0  0  0  0  0  0  0  0  0  0  0
  -90.6041   32.2473   -3.7263 C   0  0  0  0  0  0  0  0  0  0  0  0
  -89.9216   31.7285   -2.6484 C   0  0  0  0  0  0  0  0  0  0  0  0
  -91.9889   32.3073   -4.1587 C   0  0  0  0  0  0  0  0  0  0  0  0
  -92.7559   31.3877   -3.7829 O   0  0  0  0  0  0  0  0  0  0  0  0
  -92.5131   33.4064   -5.0172 C   0  0  0  0  0  0  0  0  0  0  0  0
  -91.3408   34.3283   -5.3807 C   0  0  0  0  0  0  0  0  0  0  0  0
  -90.1321   33.4758   -5.7868 C   0  0  0  0  0  0  0  0  0  0  0  0
  -87.5811   32.9996   -4.3745 H   0  0  0  0  0  0  0  0  0  0  0  0
  -90.5635   31.0135   -1.5453 C   0  0  0  0  0  0  0  0  0  0  0  0
  -90.6437   29.5166   -1.7436 C   0  0  0  0  0  0  0  0  0  0  0  0
  -91.8471   29.0456   -1.0254 C   0  0  0  0  0  0  0  0  0  0  0  0
  -92.9688   29.5354   -1.2556 O   0  0  0  0  0  0  0  0  0  0  0  0
  -91.7269   28.0451   -0.0821 O   0  0  0  0  0  0  0  0  0  0  0  0
  -91.1361   28.1091    0.7363 H   0  0  0  0  0  0  0  0  0  0  0  0
  -84.6872   28.9003    2.3034 S   0  0  0  0  0  0  0  0  0  0  0  0
  -85.3274   29.3188    3.5973 O   0  0  0  0  0  0  0  0  0  0  0  0
  -83.3402   28.3501    2.6100 O   0  0  0  0  0  0  0  0  0  0  0  0
  -87.0469   27.7649    2.0460 C   0  0  0  0  0  0  0  0  0  0  0  0
  -85.6640   27.6670    1.6171 N   0  0  0  0  0  0  0  0  0  0  0  0
  -85.2768   26.7251    1.7039 H   0  0  0  0  0  0  0  0  0  0  0  0
 33 34  1  0  0  0
 34 30  1  0  0  0
 30 31  2  0  0  0
 30 32  2  0  0  0
 30  1  1  0  0  0
  1  2  2  0  0  0
  2  3  1  0  0  0
  3  4  2  0  0  0
  4  5  1  0  0  0
  5  6  2  0  0  0
  5  7  1  0  0  0
  7  8  2  0  0  0
  8 13  1  0  0  0
 13 14  1  0  0  0
 14 15  1  0  0  0
 15 16  2  0  0  0
 16 17  1  0  0  0
 17 24  1  0  0  0
 24 25  1  0  0  0
 25 26  1  0  0  0
 26 27  2  0  0  0
 26 28  1  0  0  0
 16 18  1  0  0  0
 18 19  2  0  0  0
 18 20  1  0  0  0
 20 21  1  0  0  0
 21 22  1  0  0  0
  7  9  1  0  0  0
  9 10  2  0  0  0
  9 11  1  0  0  0
  6  1  1  0  0  0
 17 13  2  0  0  0
 11  4  1  0  0  0
 22 15  1  0  0  0
 34 35  1  0  0  0
 14 23  1  0  0  0
 28 29  1  0  0  0
 11 12  1  0  0  0
M  END
> <minimizedAffinity>
-7.81240

> <CNNscore>
0.3454157412

> <CNNaffinity>
6.5738968849

> <CNN_VS>
2.2707273960

> <CNNaffinity_variance>
0.1735353768

$$$$
[H]OC(=O)C([H])([H])C([H])([H])c1c2c(n([H])c1C([H])=C1C(=O)N([H])c3c([H])c([H])c(S(=O)(=O)N([H])C([H])([H])[H])c([H])c31)C([H])([H])C([H])([H])C([H])([H])C2=O


 35 38  0  0  0  0  0  0  0  0999 V2000
  -90.7727   33.0270   -4.5034 C   0  0  0  0  0  0  0  0  0  0  0  0
  -90.2669   33.9807   -5.3605 C   0  0  0  0  0  0  0  0  0  0  0  0
  -88.9819   34.4480   -5.2285 C   0  0  0  0  0  0  0  0  0  0  0  0
  -88.1297   33.9784   -4.2210 C   0  0  0  0  0  0  0  0  0  0  0  0
  -88.6293   33.0261   -3.3622 C   0  0  0  0  0  0  0  0  0  0  0  0
  -89.9383   32.5749   -3.5256 C   0  0  0  0  0  0  0  0  0  0  0  0
  -87.6063   32.6389   -2.3685 C   0  0  0  0  0  0  0  0  0  0  0  0
  -87.7482   31.7405   -1.4283 C   0  0  0  0  0  0  0  0  0  0  0  0
  -86.4618   33.4589   -2.7333 C   0  0  0  0  0  0  0  0  0  0  0  0
  -85.3362   33.4817   -2.1728 O   0  0  0  0  0  0  0  0  0  0  0  0
  -86.7946   34.2767   -3.8703 N   0  0  0  0  0  0  0  0  0  0  0  0
  -86.1871   34.9616   -4.3569 H   0  0  0  0  0  0  0  0  0  0  0  0
  -86.7650   31.3443   -0.4396 C   0  0  0  0  0  0  0  0  0  0  0  0
  -85.8150   32.0037    0.2201 N   0  0  0  0  0  0  0  0  0  0  0  0
  -85.1233   31.1831    1.0342 C   0  0  0  0  0  0  0  0  0  0  0  0
  -85.6428   29.9125    0.9081 C   0  0  0  0  0  0  0  0  0  0  0  0
  -86.6644   30.0167   -0.0096 C   0  0  0  0  0  0  0  0  0  0  0  0
  -85.0496   28.8489    1.6988 C   0  0  0  0  0  0  0  0  0  0  0  0
  -85.7831   27.8805    2.0144 O   0  0  0  0  0  0  0  0  0  0  0  0
  -83.6256   28.8745    2.1358 C   0  0  0  0  0  0  0  0  0  0  0  0
  -83.0096   30.2036    1.6774 C   0  0  0  0  0  0  0  0  0  0  0  0
  -83.9833   31.3475    1.9873 C   0  0  0  0  0  0  0  0  0  0  0  0
  -85.6108   33.0056    0.1622 H   0  0  0  0  0  0  0  0  0  0  0  0
  -87.4935   28.8897   -0.4371 C   0  0  0  0  0  0  0  0  0  0  0  0
  -86.9590   28.1535   -1.6449 C   0  0  0  0  0  0  0  0  0  0  0  0
  -87.9472   28.3236   -2.7314 C   0  0  0  0  0  0  0  0  0  0  0  0
  -87.8351   29.2394   -3.5679 O   0  0  0  0  0  0  0  0  0  0  0  0
  -89.0139   27.4523   -2.8217 O   0  0  0  0  0  0  0  0  0  0  0  0
  -89.6928   27.3131   -2.0850 H   0  0  0  0  0  0  0  0  0  0  0  0
  -92.3932   32.4086   -4.6503 S   0  0  0  0  0  0  0  0  0  0  0  0
  -93.3126   33.5924   -4.7630 O   0  0  0  0  0  0  0  0  0  0  0  0
  -92.7858   31.6304   -3.4457 O   0  0  0  0  0  0  0  0  0  0  0  0
  -93.2872   30.1911   -5.7489 C   0  0  0  0  0  0  0  0  0  0  0  0
  -92.6180   31.4427   -6.0513 N   0  0  0  0  0  0  0  0  0  0  0  0
  -91.7787   31.3275   -6.6232 H   0  0  0  0  0  0  0  0  0  0  0  0
 33 34  1  0  0  0
 34 30  1  0  0  0
 30 31  2  0  0  0
 30 32  2  0  0  0
 30  1  1  0  0  0
  1  2  2  0  0  0
  2  3  1  0  0  0
  3  4  2  0  0  0
  4  5  1  0  0  0
  5  6  2  0  0  0
  5  7  1  0  0  0
  7  8  2  0  0  0
  8 13  1  0  0  0
 13 14  1  0  0  0
 14 15  1  0  0  0
 15 16  2  0  0  0
 16 17  1  0  0  0
 17 24  1  0  0  0
 24 25  1  0  0  0
 25 26  1  0  0  0
 26 27  2  0  0  0
 26 28  1  0  0  0
 16 18  1  0  0  0
 18 19  2  0  0  0
 18 20  1  0  0  0
 20 21  1  0  0  0
 21 22  1  0  0  0
  7  9  1  0  0  0
  9 10  2  0  0  0
  9 11  1  0  0  0
  6  1  1  0  0  0
 17 13  2  0  0  0
 11  4  1  0  0  0
 22 15  1  0  0  0
 34 35  1  0  0  0
 14 23  1  0  0  0
 28 29  1  0  0  0
 11 12  1  0  0  0
M  END
> <minimizedAffinity>
-9.73698

> <CNNscore>
0.3394308090

> <CNNaffinity>
6.3306932449

> <CNN_VS>
2.1488323212

> <CNNaffinity_variance>
0.1644918621

$$$$
[H]OC(=O)C([H])([H])C([H])([H])c1c2c(n([H])c1C([H])=C1C(=O)N([H])c3c([H])c([H])c(S(=O)(=O)N([H])C([H])([H])[H])c([H])c31)C([H])([H])C([H])([H])C([H])([H])C2=O


 35 38  0  0  0  0  0  0  0  0999 V2000
  -84.7957   31.8426    0.1624 C   0  0  0  0  0  0  0  0  0  0  0  0
  -83.8683   31.6342    1.1607 C   0  0  0  0  0  0  0  0  0  0  0  0
  -83.8248   30.4512    1.8574 C   0  0  0  0  0  0  0  0  0  0  0  0
  -84.7171   29.4062    1.5864 C   0  0  0  0  0  0  0  0  0  0  0  0
  -85.6454   29.6085    0.5908 C   0  0  0  0  0  0  0  0  0  0  0  0
  -85.6608   30.8219   -0.0957 C   0  0  0  0  0  0  0  0  0  0  0  0
  -86.5006   28.4140    0.4312 C   0  0  0  0  0  0  0  0  0  0  0  0
  -87.4620   28.2674   -0.4438 C   0  0  0  0  0  0  0  0  0  0  0  0
  -85.9789   27.4959    1.4313 C   0  0  0  0  0  0  0  0  0  0  0  0
  -86.3863   26.3319    1.6777 O   0  0  0  0  0  0  0  0  0  0  0  0
  -84.8858   28.1153    2.1340 N   0  0  0  0  0  0  0  0  0  0  0  0
  -84.3155   27.7112    2.8997 H   0  0  0  0  0  0  0  0  0  0  0  0
  -88.3176   27.1106   -0.6197 C   0  0  0  0  0  0  0  0  0  0  0  0
  -88.2660   26.0489   -1.4214 N   0  0  0  0  0  0  0  0  0  0  0  0
  -89.3248   25.2382   -1.2305 C   0  0  0  0  0  0  0  0  0  0  0  0
  -90.1199   25.7913   -0.2497 C   0  0  0  0  0  0  0  0  0  0  0  0
  -89.4899   26.9563    0.1282 C   0  0  0  0  0  0  0  0  0  0  0  0
  -91.3312   25.0856    0.1284 C   0  0  0  0  0  0  0  0  0  0  0  0
  -91.7540   25.2423    1.2998 O   0  0  0  0  0  0  0  0  0  0  0  0
  -92.0701   24.2004   -0.8151 C   0  0  0  0  0  0  0  0  0  0  0  0
  -91.2806   24.1398   -2.1300 C   0  0  0  0  0  0  0  0  0  0  0  0
  -89.7913   23.9455   -1.8190 C   0  0  0  0  0  0  0  0  0  0  0  0
  -87.5299   25.8263   -2.0977 H   0  0  0  0  0  0  0  0  0  0  0  0
  -89.9996   27.8607    1.1589 C   0  0  0  0  0  0  0  0  0  0  0  0
  -89.6411   27.4528    2.5701 C   0  0  0  0  0  0  0  0  0  0  0  0
  -90.7738   27.8413    3.4372 C   0  0  0  0  0  0  0  0  0  0  0  0
  -91.4742   28.8375    3.1759 O   0  0  0  0  0  0  0  0  0  0  0  0
  -91.0616   27.0873    4.5570 O   0  0  0  0  0  0  0  0  0  0  0  0
  -90.4067   26.9223    5.3098 H   0  0  0  0  0  0  0  0  0  0  0  0
  -84.8704   33.3267   -0.7441 S   0  0  0  0  0  0  0  0  0  0  0  0
  -83.5294   33.9937   -0.6169 O   0  0  0  0  0  0  0  0  0  0  0  0
  -85.8994   34.2466   -0.1909 O   0  0  0  0  0  0  0  0  0  0  0  0
  -86.5424   33.3758   -2.7753 C   0  0  0  0  0  0  0  0  0  0  0  0
  -85.1685   33.0771   -2.4159 N   0  0  0  0  0  0  0  0  0  0  0  0
  -84.8411   32.1771   -2.7728 H   0  0  0  0  0  0  0  0  0  0  0  0
 33 34  1  0  0  0
 34 30  1  0  0  0
 30 31  2  0  0  0
 30 32  2  0  0  0
 30  1  1  0  0  0
  1  2  2  0  0  0
  2  3  1  0  0  0
  3  4  2  0  0  0
  4  5  1  0  0  0
  5  6  2  0  0  0
  5  7  1  0  0  0
  7  8  2  0  0  0
  8 13  1  0  0  0
 13 14  1  0  0  0
 14 15  1  0  0  0
 15 16  2  0  0  0
 16 17  1  0  0  0
 17 24  1  0  0  0
 24 25  1  0  0  0
 25 26  1  0  0  0
 26 27  2  0  0  0
 26 28  1  0  0  0
 16 18  1  0  0  0
 18 19  2  0  0  0
 18 20  1  0  0  0
 20 21  1  0  0  0
 21 22  1  0  0  0
  7  9  1  0  0  0
  9 10  2  0  0  0
  9 11  1  0  0  0
  6  1  1  0  0  0
 17 13  2  0  0  0
 11  4  1  0  0  0
 22 15  1  0  0  0
 34 35  1  0  0  0
 14 23  1  0  0  0
 28 29  1  0  0  0
 11 12  1  0  0  0
M  END
> <minimizedAffinity>
-9.22866

> <CNNscore>
0.2466158867

> <CNNaffinity>
6.2490592003

> <CNN_VS>
1.5411173105

> <CNNaffinity_variance>
0.3635916710

$$$$
[H]OC(=O)C([H])([H])C([H])([H])c1c2c(n([H])c1C([H])=C1C(=O)N([H])c3c([H])c([H])c(S(=O)(=O)N([H])C([H])([H])[H])c([H])c31)C([H])([H])C([H])([H])C([H])([H])C2=O


 35 38  0  0  0  0  0  0  0  0999 V2000
  -84.9871   31.2460    0.8922 C   0  0  0  0  0  0  0  0  0  0  0  0
  -84.0041   32.1516    0.5548 C   0  0  0  0  0  0  0  0  0  0  0  0
  -84.1568   33.0054   -0.5103 C   0  0  0  0  0  0  0  0  0  0  0  0
  -85.3139   32.9954   -1.2994 C   0  0  0  0  0  0  0  0  0  0  0  0
  -86.2988   32.0933   -0.9674 C   0  0  0  0  0  0  0  0  0  0  0  0
  -86.1099   31.2416    0.1201 C   0  0  0  0  0  0  0  0  0  0  0  0
  -87.4453   32.2167   -1.8916 C   0  0  0  0  0  0  0  0  0  0  0  0
  -88.5549   31.5259   -1.8376 C   0  0  0  0  0  0  0  0  0  0  0  0
  -87.0317   33.2796   -2.7940 C   0  0  0  0  0  0  0  0  0  0  0  0
  -87.6837   33.7493   -3.7614 O   0  0  0  0  0  0  0  0  0  0  0  0
  -85.7228   33.7491   -2.4217 N   0  0  0  0  0  0  0  0  0  0  0  0
  -85.1657   34.4967   -2.8751 H   0  0  0  0  0  0  0  0  0  0  0  0
  -89.6919   31.6232   -2.7314 C   0  0  0  0  0  0  0  0  0  0  0  0
  -90.4332   32.6428   -3.1598 N   0  0  0  0  0  0  0  0  0  0  0  0
  -91.4159   32.2239   -3.9805 C   0  0  0  0  0  0  0  0  0  0  0  0
  -91.3205   30.8543   -4.1033 C   0  0  0  0  0  0  0  0  0  0  0  0
  -90.2464   30.4840   -3.3249 C   0  0  0  0  0  0  0  0  0  0  0  0
  -92.2858   30.1738   -4.9480 C   0  0  0  0  0  0  0  0  0  0  0  0
  -91.9286   29.0999   -5.4906 O   0  0  0  0  0  0  0  0  0  0  0  0
  -93.6584   30.7034   -5.1829 C   0  0  0  0  0  0  0  0  0  0  0  0
  -93.7775   32.0552   -4.4655 C   0  0  0  0  0  0  0  0  0  0  0  0
  -92.5191   32.8879   -4.7403 C   0  0  0  0  0  0  0  0  0  0  0  0
  -90.3014   33.6334   -2.9360 H   0  0  0  0  0  0  0  0  0  0  0  0
  -89.7878   29.1031   -3.1733 C   0  0  0  0  0  0  0  0  0  0  0  0
  -90.6734   28.2519   -2.2915 C   0  0  0  0  0  0  0  0  0  0  0  0
  -90.6845   26.8910   -2.8692 C   0  0  0  0  0  0  0  0  0  0  0  0
  -90.0977   25.9469   -2.3075 O   0  0  0  0  0  0  0  0  0  0  0  0
  -91.3571   26.6610   -4.0524 O   0  0  0  0  0  0  0  0  0  0  0  0
  -91.1535   27.1400   -4.9196 H   0  0  0  0  0  0  0  0  0  0  0  0
  -84.8271   30.1574    2.2410 S   0  0  0  0  0  0  0  0  0  0  0  0
  -85.1141   30.9476    3.4870 O   0  0  0  0  0  0  0  0  0  0  0  0
  -83.4440   29.6209    2.3413 O   0  0  0  0  0  0  0  0  0  0  0  0
  -85.2839   27.5837    1.9395 C   0  0  0  0  0  0  0  0  0  0  0  0
  -85.9419   28.8534    2.1862 N   0  0  0  0  0  0  0  0  0  0  0  0
  -86.7516   29.0158    1.5840 H   0  0  0  0  0  0  0  0  0  0  0  0
 33 34  1  0  0  0
 34 30  1  0  0  0
 30 31  2  0  0  0
 30 32  2  0  0  0
 30  1  1  0  0  0
  1  2  2  0  0  0
  2  3  1  0  0  0
  3  4  2  0  0  0
  4  5  1  0  0  0
  5  6  2  0  0  0
  5  7  1  0  0  0
  7  8  2  0  0  0
  8 13  1  0  0  0
 13 14  1  0  0  0
 14 15  1  0  0  0
 15 16  2  0  0  0
 16 17  1  0  0  0
 17 24  1  0  0  0
 24 25  1  0  0  0
 25 26  1  0  0  0
 26 27  2  0  0  0
 26 28  1  0  0  0
 16 18  1  0  0  0
 18 19  2  0  0  0
 18 20  1  0  0  0
 20 21  1  0  0  0
 21 22  1  0  0  0
  7  9  1  0  0  0
  9 10  2  0  0  0
  9 11  1  0  0  0
  6  1  1  0  0  0
 17 13  2  0  0  0
 11  4  1  0  0  0
 22 15  1  0  0  0
 34 35  1  0  0  0
 14 23  1  0  0  0
 28 29  1  0  0  0
 11 12  1  0  0  0
M  END
> <minimizedAffinity>
-7.91007

> <CNNscore>
0.2290789038

> <CNNaffinity>
6.2446594238

> <CNN_VS>
1.4305197001

> <CNNaffinity_variance>
0.2463994473

$$$$
[H]OC(=O)C([H])([H])C([H])([H])c1c2c(n([H])c1C([H])=C1C(=O)N([H])c3c([H])c([H])c(S(=O)(=O)N([H])C([H])([H])[H])c([H])c31)C([H])([H])C([H])([H])C([H])([H])C2=O


 35 38  0  0  0  0  0  0  0  0999 V2000
  -86.6391   28.5983    1.1021 C   0  0  0  0  0  0  0  0  0  0  0  0
  -85.6621   29.0465    1.9650 C   0  0  0  0  0  0  0  0  0  0  0  0
  -85.0927   30.2874    1.8144 C   0  0  0  0  0  0  0  0  0  0  0  0
  -85.4774   31.1513    0.7813 C   0  0  0  0  0  0  0  0  0  0  0  0
  -86.4525   30.7093   -0.0835 C   0  0  0  0  0  0  0  0  0  0  0  0
  -87.0083   29.4438    0.0993 C   0  0  0  0  0  0  0  0  0  0  0  0
  -86.7418   31.7372   -1.1050 C   0  0  0  0  0  0  0  0  0  0  0  0
  -87.6337   31.6456   -2.0577 C   0  0  0  0  0  0  0  0  0  0  0  0
  -85.8399   32.8215   -0.7499 C   0  0  0  0  0  0  0  0  0  0  0  0
  -85.7193   33.9291   -1.3333 O   0  0  0  0  0  0  0  0  0  0  0  0
  -85.0691   32.4508    0.4080 N   0  0  0  0  0  0  0  0  0  0  0  0
  -84.3461   33.0131    0.8938 H   0  0  0  0  0  0  0  0  0  0  0  0
  -87.9352   32.6347   -3.0735 C   0  0  0  0  0  0  0  0  0  0  0  0
  -87.2001   33.5429   -3.7118 N   0  0  0  0  0  0  0  0  0  0  0  0
  -87.9475   34.2639   -4.5698 C   0  0  0  0  0  0  0  0  0  0  0  0
  -89.2467   33.8089   -4.4971 C   0  0  0  0  0  0  0  0  0  0  0  0
  -89.2352   32.7950   -3.5652 C   0  0  0  0  0  0  0  0  0  0  0  0
  -90.2426   34.4437   -5.3419 C   0  0  0  0  0  0  0  0  0  0  0  0
  -91.2307   33.7547   -5.6943 O   0  0  0  0  0  0  0  0  0  0  0  0
  -90.1265   35.8593   -5.7918 C   0  0  0  0  0  0  0  0  0  0  0  0
  -88.7907   36.4149   -5.2789 C   0  0  0  0  0  0  0  0  0  0  0  0
  -87.6835   35.3825   -5.5258 C   0  0  0  0  0  0  0  0  0  0  0  0
  -86.1930   33.6984   -3.6098 H   0  0  0  0  0  0  0  0  0  0  0  0
  -90.4202   32.0275   -3.1817 C   0  0  0  0  0  0  0  0  0  0  0  0
  -90.5790   30.7227   -3.9292 C   0  0  0  0  0  0  0  0  0  0  0  0
  -90.5362   29.6377   -2.9258 C   0  0  0  0  0  0  0  0  0  0  0  0
  -89.8341   28.6241   -3.1012 O   0  0  0  0  0  0  0  0  0  0  0  0
  -91.2876   29.7485   -1.7733 O   0  0  0  0  0  0  0  0  0  0  0  0
  -92.2929   29.8593   -1.7634 H   0  0  0  0  0  0  0  0  0  0  0  0
  -87.3858   27.0352    1.2720 S   0  0  0  0  0  0  0  0  0  0  0  0
  -86.6627   26.3141    2.3749 O   0  0  0  0  0  0  0  0  0  0  0  0
  -87.2496   26.2332    0.0273 O   0  0  0  0  0  0  0  0  0  0  0  0
  -89.2189   27.2497    3.1474 C   0  0  0  0  0  0  0  0  0  0  0  0
  -89.0423   27.1275    1.7122 N   0  0  0  0  0  0  0  0  0  0  0  0
  -89.6317   26.4073    1.2896 H   0  0  0  0  0  0  0  0  0  0  0  0
 33 34  1  0  0  0
 34 30  1  0  0  0
 30 31  2  0  0  0
 30 32  2  0  0  0
 30  1  1  0  0  0
  1  2  2  0  0  0
  2  3  1  0  0  0
  3  4  2  0  0  0
  4  5  1  0  0  0
  5  6  2  0  0  0
  5  7  1  0  0  0
  7  8  2  0  0  0
  8 13  1  0  0  0
 13 14  1  0  0  0
 14 15  1  0  0  0
 15 16  2  0  0  0
 16 17  1  0  0  0
 17 24  1  0  0  0
 24 25  1  0  0  0
 25 26  1  0  0  0
 26 27  2  0  0  0
 26 28  1  0  0  0
 16 18  1  0  0  0
 18 19  2  0  0  0
 18 20  1  0  0  0
 20 21  1  0  0  0
 21 22  1  0  0  0
  7  9  1  0  0  0
  9 10  2  0  0  0
  9 11  1  0  0  0
  6  1  1  0  0  0
 17 13  2  0  0  0
 11  4  1  0  0  0
 22 15  1  0  0  0
 34 35  1  0  0  0
 14 23  1  0  0  0
 28 29  1  0  0  0
 11 12  1  0  0  0
M  END
> <minimizedAffinity>
-7.85297

> <CNNscore>
0.2232058644

> <CNNaffinity>
6.2032275200

> <CNN_VS>
1.3845967054

> <CNNaffinity_variance>
0.2241953164

$$$$
[H]OC(=O)C([H])([H])C([H])([H])c1c2c(n([H])c1C([H])=C1C(=O)N([H])c3c([H])c([H])c(S(=O)(=O)N([H])C([H])([H])[H])c([H])c31)C([H])([H])C([H])([H])C([H])([H])C2=O


 35 38  0  0  0  0  0  0  0  0999 V2000
  -85.6091   30.9092    0.7730 C   0  0  0  0  0  0  0  0  0  0  0  0
  -86.1085   31.8448   -0.1075 C   0  0  0  0  0  0  0  0  0  0  0  0
  -87.1897   31.5650   -0.9073 C   0  0  0  0  0  0  0  0  0  0  0  0
  -87.8321   30.3211   -0.8649 C   0  0  0  0  0  0  0  0  0  0  0  0
  -87.3378   29.3830    0.0123 C   0  0  0  0  0  0  0  0  0  0  0  0
  -86.2387   29.7013    0.8088 C   0  0  0  0  0  0  0  0  0  0  0  0
  -88.1277   28.1365   -0.0651 C   0  0  0  0  0  0  0  0  0  0  0  0
  -87.9388   27.0599    0.6537 C   0  0  0  0  0  0  0  0  0  0  0  0
  -89.1310   28.4410   -1.0731 C   0  0  0  0  0  0  0  0  0  0  0  0
  -90.0439   27.6818   -1.4876 O   0  0  0  0  0  0  0  0  0  0  0  0
  -88.9395   29.7832   -1.5570 N   0  0  0  0  0  0  0  0  0  0  0  0
  -89.4954   30.2823   -2.2758 H   0  0  0  0  0  0  0  0  0  0  0  0
  -88.6944   25.8242    0.5961 C   0  0  0  0  0  0  0  0  0  0  0  0
  -88.6123   24.7374   -0.1686 N   0  0  0  0  0  0  0  0  0  0  0  0
  -89.5705   23.8439    0.1445 C   0  0  0  0  0  0  0  0  0  0  0  0
  -90.3273   24.3655    1.1717 C   0  0  0  0  0  0  0  0  0  0  0  0
  -89.7791   25.5978    1.4503 C   0  0  0  0  0  0  0  0  0  0  0  0
  -91.4307   23.5709    1.6810 C   0  0  0  0  0  0  0  0  0  0  0  0
  -91.7648   23.7399    2.8790 O   0  0  0  0  0  0  0  0  0  0  0  0
  -92.1613   22.5823    0.8392 C   0  0  0  0  0  0  0  0  0  0  0  0
  -91.4846   22.5356   -0.5378 C   0  0  0  0  0  0  0  0  0  0  0  0
  -89.9626   22.4900   -0.3537 C   0  0  0  0  0  0  0  0  0  0  0  0
  -87.9189   24.5527   -0.8993 H   0  0  0  0  0  0  0  0  0  0  0  0
  -90.2814   26.4969    2.4893 C   0  0  0  0  0  0  0  0  0  0  0  0
  -89.4039   26.5708    3.7186 C   0  0  0  0  0  0  0  0  0  0  0  0
  -90.2917   26.4560    4.8953 C   0  0  0  0  0  0  0  0  0  0  0  0
  -89.9480   26.8967    6.0082 O   0  0  0  0  0  0  0  0  0  0  0  0
  -91.5243   25.8497    4.7594 O   0  0  0  0  0  0  0  0  0  0  0  0
  -91.6533   24.8991    4.4391 H   0  0  0  0  0  0  0  0  0  0  0  0
  -84.2466   31.2366    1.8057 S   0  0  0  0  0  0  0  0  0  0  0  0
  -83.5503   29.9275    2.0520 O   0  0  0  0  0  0  0  0  0  0  0  0
  -84.6823   31.7835    3.1179 O   0  0  0  0  0  0  0  0  0  0  0  0
  -82.4877   31.7314   -0.0878 C   0  0  0  0  0  0  0  0  0  0  0  0
  -83.1065   32.3039    1.0934 N   0  0  0  0  0  0  0  0  0  0  0  0
  -82.4344   32.7034    1.7517 H   0  0  0  0  0  0  0  0  0  0  0  0
 33 34  1  0  0  0
 34 30  1  0  0  0
 30 31  2  0  0  0
 30 32  2  0  0  0
 30  1  1  0  0  0
  1  2  2  0  0  0
  2  3  1  0  0  0
  3  4  2  0  0  0
  4  5  1  0  0  0
  5  6  2  0  0  0
  5  7  1  0  0  0
  7  8  2  0  0  0
  8 13  1  0  0  0
 13 14  1  0  0  0
 14 15  1  0  0  0
 15 16  2  0  0  0
 16 17  1  0  0  0
 17 24  1  0  0  0
 24 25  1  0  0  0
 25 26  1  0  0  0
 26 27  2  0  0  0
 26 28  1  0  0  0
 16 18  1  0  0  0
 18 19  2  0  0  0
 18 20  1  0  0  0
 20 21  1  0  0  0
 21 22  1  0  0  0
  7  9  1  0  0  0
  9 10  2  0  0  0
  9 11  1  0  0  0
  6  1  1  0  0  0
 17 13  2  0  0  0
 11  4  1  0  0  0
 22 15  1  0  0  0
 34 35  1  0  0  0
 14 23  1  0  0  0
 28 29  1  0  0  0
 11 12  1  0  0  0
M  END
> <minimizedAffinity>
-9.49559

> <CNNscore>
0.1588334590

> <CNNaffinity>
6.0741186142

> <CNN_VS>
0.9647732973

> <CNNaffinity_variance>
0.3134338260

$$$$
[H]OC(=O)C([H])([H])C([H])([H])c1c2c(n([H])c1C([H])=C1C(=O)N([H])c3c([H])c([H])c(S(=O)(=O)N([H])C([H])([H])[H])c([H])c31)C([H])([H])C([H])([H])C([H])([H])C2=O


 35 38  0  0  0  0  0  0  0  0999 V2000
  -91.2339   31.2834   -4.0941 C   0  0  0  0  0  0  0  0  0  0  0  0
  -91.3112   32.5783   -4.5602 C   0  0  0  0  0  0  0  0  0  0  0  0
  -90.4200   33.5387   -4.1477 C   0  0  0  0  0  0  0  0  0  0  0  0
  -89.3955   33.2475   -3.2381 C   0  0  0  0  0  0  0  0  0  0  0  0
  -89.3133   31.9563   -2.7692 C   0  0  0  0  0  0  0  0  0  0  0  0
  -90.2350   31.0073   -3.2094 C   0  0  0  0  0  0  0  0  0  0  0  0
  -88.1821   31.8192   -1.8284 C   0  0  0  0  0  0  0  0  0  0  0  0
  -87.8118   30.7189   -1.2253 C   0  0  0  0  0  0  0  0  0  0  0  0
  -87.6130   33.1573   -1.7959 C   0  0  0  0  0  0  0  0  0  0  0  0
  -86.6180   33.5419   -1.1298 O   0  0  0  0  0  0  0  0  0  0  0  0
  -88.3657   34.0248   -2.6637 N   0  0  0  0  0  0  0  0  0  0  0  0
  -88.2025   35.0318   -2.8486 H   0  0  0  0  0  0  0  0  0  0  0  0
  -86.7109   30.5568   -0.2965 C   0  0  0  0  0  0  0  0  0  0  0  0
  -85.8026   31.3944    0.1997 N   0  0  0  0  0  0  0  0  0  0  0  0
  -84.9500   30.7595    1.0270 C   0  0  0  0  0  0  0  0  0  0  0  0
  -85.3127   29.4308    1.0830 C   0  0  0  0  0  0  0  0  0  0  0  0
  -86.4090   29.3085    0.2584 C   0  0  0  0  0  0  0  0  0  0  0  0
  -84.5286   28.5419    1.9216 C   0  0  0  0  0  0  0  0  0  0  0  0
  -85.1061   27.5370    2.4033 O   0  0  0  0  0  0  0  0  0  0  0  0
  -83.0890   28.7842    2.2192 C   0  0  0  0  0  0  0  0  0  0  0  0
  -82.6848   30.1148    1.5694 C   0  0  0  0  0  0  0  0  0  0  0  0
  -83.7678   31.1647    1.8475 C   0  0  0  0  0  0  0  0  0  0  0  0
  -85.7322   32.4000    0.0188 H   0  0  0  0  0  0  0  0  0  0  0  0
  -87.1200   28.0505    0.0297 C   0  0  0  0  0  0  0  0  0  0  0  0
  -88.4166   27.9260    0.7977 C   0  0  0  0  0  0  0  0  0  0  0  0
  -88.4643   26.5566    1.3532 C   0  0  0  0  0  0  0  0  0  0  0  0
  -89.4851   25.8515    1.2445 O   0  0  0  0  0  0  0  0  0  0  0  0
  -87.3582   26.0491    2.0045 O   0  0  0  0  0  0  0  0  0  0  0  0
  -86.9371   26.4767    2.8187 H   0  0  0  0  0  0  0  0  0  0  0  0
  -92.3425   30.0422   -4.6046 S   0  0  0  0  0  0  0  0  0  0  0  0
  -93.5226   30.0899   -3.6749 O   0  0  0  0  0  0  0  0  0  0  0  0
  -91.7269   28.6926   -4.5025 O   0  0  0  0  0  0  0  0  0  0  0  0
  -94.2883   30.7908   -6.2099 C   0  0  0  0  0  0  0  0  0  0  0  0
  -92.9293   30.2820   -6.1997 N   0  0  0  0  0  0  0  0  0  0  0  0
  -92.7883   29.4859   -6.8250 H   0  0  0  0  0  0  0  0  0  0  0  0
 33 34  1  0  0  0
 34 30  1  0  0  0
 30 31  2  0  0  0
 30 32  2  0  0  0
 30  1  1  0  0  0
  1  2  2  0  0  0
  2  3  1  0  0  0
  3  4  2  0  0  0
  4  5  1  0  0  0
  5  6  2  0  0  0
  5  7  1  0  0  0
  7  8  2  0  0  0
  8 13  1  0  0  0
 13 14  1  0  0  0
 14 15  1  0  0  0
 15 16  2  0  0  0
 16 17  1  0  0  0
 17 24  1  0  0  0
 24 25  1  0  0  0
 25 26  1  0  0  0
 26 27  2  0  0  0
 26 28  1  0  0  0
 16 18  1  0  0  0
 18 19  2  0  0  0
 18 20  1  0  0  0
 20 21  1  0  0  0
 21 22  1  0  0  0
  7  9  1  0  0  0
  9 10  2  0  0  0
  9 11  1  0  0  0
  6  1  1  0  0  0
 17 13  2  0  0  0
 11  4  1  0  0  0
 22 15  1  0  0  0
 34 35  1  0  0  0
 14 23  1  0  0  0
 28 29  1  0  0  0
 11 12  1  0  0  0
M  END
> <minimizedAffinity>
-9.28209

> <CNNscore>
0.1263497919

> <CNNaffinity>
6.1994581223

> <CNN_VS>
0.7833002210

> <CNNaffinity_variance>
0.4875608385

$$$$
[H]OC(=O)C([H])([H])C([H])([H])c1c2c(n([H])c1C([H])=C1C(=O)N([H])c3c([H])c([H])c(S(=O)(=O)N([H])C([H])([H])[H])c([H])c31)C([H])([H])C([H])([H])C([H])([H])C2=O


 35 38  0  0  0  0  0  0  0  0999 V2000
  -89.0157   35.6473   -4.4987 C   0  0  0  0  0  0  0  0  0  0  0  0
  -89.5666   35.2544   -5.6996 C   0  0  0  0  0  0  0  0  0  0  0  0
  -89.7144   33.9257   -6.0152 C   0  0  0  0  0  0  0  0  0  0  0  0
  -89.3139   32.9129   -5.1347 C   0  0  0  0  0  0  0  0  0  0  0  0
  -88.7631   33.2991   -3.9341 C   0  0  0  0  0  0  0  0  0  0  0  0
  -88.6281   34.6568   -3.6471 C   0  0  0  0  0  0  0  0  0  0  0  0
  -88.4015   32.1153   -3.1268 C   0  0  0  0  0  0  0  0  0  0  0  0
  -87.8820   32.1321   -1.9263 C   0  0  0  0  0  0  0  0  0  0  0  0
  -88.7965   31.0017   -3.9749 C   0  0  0  0  0  0  0  0  0  0  0  0
  -88.6884   29.7759   -3.7156 O   0  0  0  0  0  0  0  0  0  0  0  0
  -89.3541   31.5029   -5.2038 N   0  0  0  0  0  0  0  0  0  0  0  0
  -89.7220   30.9535   -6.0024 H   0  0  0  0  0  0  0  0  0  0  0  0
  -87.5146   30.9888   -1.1146 C   0  0  0  0  0  0  0  0  0  0  0  0
  -88.0274   29.7687   -0.9687 N   0  0  0  0  0  0  0  0  0  0  0  0
  -87.3379   29.0524   -0.0598 C   0  0  0  0  0  0  0  0  0  0  0  0
  -86.3133   29.8389    0.4217 C   0  0  0  0  0  0  0  0  0  0  0  0
  -86.4263   31.0430   -0.2371 C   0  0  0  0  0  0  0  0  0  0  0  0
  -85.4279   29.2721    1.4232 C   0  0  0  0  0  0  0  0  0  0  0  0
  -84.2519   29.7078    1.4732 O   0  0  0  0  0  0  0  0  0  0  0  0
  -85.8673   28.2112    2.3725 C   0  0  0  0  0  0  0  0  0  0  0  0
  -87.3114   27.8260    2.0225 C   0  0  0  0  0  0  0  0  0  0  0  0
  -87.4407   27.6709    0.5021 C   0  0  0  0  0  0  0  0  0  0  0  0
  -88.8284   29.3760   -1.4717 H   0  0  0  0  0  0  0  0  0  0  0  0
  -85.5244   32.1752   -0.0254 C   0  0  0  0  0  0  0  0  0  0  0  0
  -84.3969   32.2623   -1.0291 C   0  0  0  0  0  0  0  0  0  0  0  0
  -83.1910   32.6988   -0.2933 C   0  0  0  0  0  0  0  0  0  0  0  0
  -82.3909   31.8715    0.1825 O   0  0  0  0  0  0  0  0  0  0  0  0
  -82.9463   34.0473   -0.1299 O   0  0  0  0  0  0  0  0  0  0  0  0
  -83.5838   34.6852    0.3281 H   0  0  0  0  0  0  0  0  0  0  0  0
  -88.8234   37.3224   -4.0662 S   0  0  0  0  0  0  0  0  0  0  0  0
  -88.0471   37.3635   -2.7798 O   0  0  0  0  0  0  0  0  0  0  0  0
  -90.1391   37.9750   -3.8341 O   0  0  0  0  0  0  0  0  0  0  0  0
  -88.7613   39.2218   -5.8861 C   0  0  0  0  0  0  0  0  0  0  0  0
  -87.9401   38.2192   -5.2332 N   0  0  0  0  0  0  0  0  0  0  0  0
  -87.4016   37.6462   -5.8862 H   0  0  0  0  0  0  0  0  0  0  0  0
 33 34  1  0  0  0
 34 30  1  0  0  0
 30 31  2  0  0  0
 30 32  2  0  0  0
 30  1  1  0  0  0
  1  2  2  0  0  0
  2  3  1  0  0  0
  3  4  2  0  0  0
  4  5  1  0  0  0
  5  6  2  0  0  0
  5  7  1  0  0  0
  7  8  2  0  0  0
  8 13  1  0  0  0
 13 14  1  0  0  0
 14 15  1  0  0  0
 15 16  2  0  0  0
 16 17  1  0  0  0
 17 24  1  0  0  0
 24 25  1  0  0  0
 25 26  1  0  0  0
 26 27  2  0  0  0
 26 28  1  0  0  0
 16 18  1  0  0  0
 18 19  2  0  0  0
 18 20  1  0  0  0
 20 21  1  0  0  0
 21 22  1  0  0  0
  7  9  1  0  0  0
  9 10  2  0  0  0
  9 11  1  0  0  0
  6  1  1  0  0  0
 17 13  2  0  0  0
 11  4  1  0  0  0
 22 15  1  0  0  0
 34 35  1  0  0  0
 14 23  1  0  0  0
 28 29  1  0  0  0
 11 12  1  0  0  0
M  END
> <minimizedAffinity>
-8.03771

> <CNNscore>
0.1152021363

> <CNNaffinity>
5.9597430229

> <CNN_VS>
0.6865751147

> <CNNaffinity_variance>
0.1045551151

$$$$
[H]c1nc(OC([H])([H])[H])c(N([H])S(=O)(=O)c2c([H])c([H])c(F)c([H])c2F)c([H])c1-c1nc([H])c2nc(N([H])[H])c(-c3c([H])c([H])c([H])c([H])c3[H])c([H])c2c1[H]


 40 44  0  0  0  0  0  0  0  0999 V2000
  -88.5434   27.4161    1.7136 C   0  0  0  0  0  0  0  0  0  0  0  0
  -89.8399   27.6963    1.5188 N   0  0  0  0  0  0  0  0  0  0  0  0
  -90.2775   28.5749    0.5632 C   0  0  0  0  0  0  0  0  0  0  0  0
  -89.3878   29.2227   -0.2563 C   0  0  0  0  0  0  0  0  0  0  0  0
  -88.0465   28.9386   -0.0611 C   0  0  0  0  0  0  0  0  0  0  0  0
  -87.6149   28.0424    0.9147 C   0  0  0  0  0  0  0  0  0  0  0  0
  -89.7941   30.1738   -1.2969 C   0  0  0  0  0  0  0  0  0  0  0  0
  -89.1032   31.3148   -1.5308 C   0  0  0  0  0  0  0  0  0  0  0  0
  -89.5000   32.2163   -2.5275 C   0  0  0  0  0  0  0  0  0  0  0  0
  -88.7803   33.3723   -2.7474 C   0  0  0  0  0  0  0  0  0  0  0  0
  -89.2202   34.2363   -3.7538 C   0  0  0  0  0  0  0  0  0  0  0  0
  -90.3492   33.9147   -4.4927 C   0  0  0  0  0  0  0  0  0  0  0  0
  -90.7457   34.8240   -5.5072 N   0  0  0  0  0  0  0  0  0  0  0  0
  -91.0370   32.7712   -4.2539 N   0  0  0  0  0  0  0  0  0  0  0  0
  -90.6170   31.9381   -3.2869 C   0  0  0  0  0  0  0  0  0  0  0  0
  -91.3053   30.7566   -3.0211 C   0  0  0  0  0  0  0  0  0  0  0  0
  -90.8927   29.9234   -2.0607 N   0  0  0  0  0  0  0  0  0  0  0  0
  -90.0098   35.2084   -6.1304 H   0  0  0  0  0  0  0  0  0  0  0  0
  -91.7258   35.1007   -5.6309 H   0  0  0  0  0  0  0  0  0  0  0  0
  -88.4702   35.4385   -3.9686 C   0  0  0  0  0  0  0  0  0  0  0  0
  -88.7542   36.5849   -3.2649 C   0  0  0  0  0  0  0  0  0  0  0  0
  -88.0622   37.7501   -3.4527 C   0  0  0  0  0  0  0  0  0  0  0  0
  -87.0444   37.7954   -4.3727 C   0  0  0  0  0  0  0  0  0  0  0  0
  -86.7284   36.6683   -5.0987 C   0  0  0  0  0  0  0  0  0  0  0  0
  -87.4493   35.4998   -4.8857 C   0  0  0  0  0  0  0  0  0  0  0  0
  -89.0774   25.8050    3.4914 C   0  0  0  0  0  0  0  0  0  0  0  0
  -88.1591   26.5034    2.7129 O   0  0  0  0  0  0  0  0  0  0  0  0
  -86.2434   27.7552    1.1190 N   0  0  0  0  0  0  0  0  0  0  0  0
  -85.8498   26.9170    0.6031 H   0  0  0  0  0  0  0  0  0  0  0  0
  -85.2076   28.6837    2.1471 S   0  0  0  0  0  0  0  0  0  0  0  0
  -85.9742   29.1070    3.3803 O   0  0  0  0  0  0  0  0  0  0  0  0
  -84.0960   27.8008    2.6322 O   0  0  0  0  0  0  0  0  0  0  0  0
  -84.5317   30.0641    1.3553 C   0  0  0  0  0  0  0  0  0  0  0  0
  -85.3295   30.9795    0.7103 C   0  0  0  0  0  0  0  0  0  0  0  0
  -84.7481   32.0712    0.0956 C   0  0  0  0  0  0  0  0  0  0  0  0
  -83.3856   32.2540    0.1203 C   0  0  0  0  0  0  0  0  0  0  0  0
  -82.7920   33.3297   -0.4833 F   0  0  0  0  0  0  0  0  0  0  0  0
  -82.5622   31.3416    0.7661 C   0  0  0  0  0  0  0  0  0  0  0  0
  -83.1732   30.2625    1.3701 C   0  0  0  0  0  0  0  0  0  0  0  0
  -82.4024   29.3514    2.0096 F   0  0  0  0  0  0  0  0  0  0  0  0
 26 27  1  0  0  0
 27  1  1  0  0  0
  1  2  2  0  0  0
  2  3  1  0  0  0
  3  4  2  0  0  0
  4  7  1  0  0  0
  7  8  2  0  0  0
  8  9  1  0  0  0
  9 10  2  0  0  0
 10 11  1  0  0  0
 11 20  1  0  0  0
 20 21  2  0  0  0
 21 22  1  0  0  0
 22 23  2  0  0  0
 23 24  1  0  0  0
 24 25  2  0  0  0
 11 12  2  0  0  0
 12 13  1  0  0  0
 12 14  1  0  0  0
 14 15  2  0  0  0
 15 16  1  0  0  0
 16 17  2  0  0  0
  4  5  1  0  0  0
  5  6  2  0  0  0
  6 28  1  0  0  0
 28 30  1  0  0  0
 30 31  2  0  0  0
 30 32  2  0  0  0
 30 33  1  0  0  0
 33 34  2  0  0  0
 34 35  1  0  0  0
 35 36  2  0  0  0
 36 37  1  0  0  0
 36 38  1  0  0  0
 38 39  2  0  0  0
 39 40  1  0  0  0
  6  1  1  0  0  0
 39 33  1  0  0  0
 17  7  1  0  0  0
 15  9  1  0  0  0
 25 20  1  0  0  0
 13 18  1  0  0  0
 13 19  1  0  0  0
 28 29  1  0  0  0
M  END
> <minimizedAffinity>
-10.22454

> <CNNscore>
0.1894281060

> <CNNaffinity>
6.9975066185

> <CNN_VS>
1.3255244493

> <CNNaffinity_variance>
0.5696883202

$$$$
[H]c1nc(OC([H])([H])[H])c(N([H])S(=O)(=O)c2c([H])c([H])c(F)c([H])c2F)c([H])c1-c1nc([H])c2nc(N([H])[H])c(-c3c([H])c([H])c([H])c([H])c3[H])c([H])c2c1[H]


 40 44  0  0  0  0  0  0  0  0999 V2000
  -92.3081   32.0156   -4.3193 C   0  0  0  0  0  0  0  0  0  0  0  0
  -91.5230   33.0403   -4.6811 N   0  0  0  0  0  0  0  0  0  0  0  0
  -90.2992   33.2787   -4.1133 C   0  0  0  0  0  0  0  0  0  0  0  0
  -89.8110   32.4604   -3.1260 C   0  0  0  0  0  0  0  0  0  0  0  0
  -90.6165   31.3996   -2.7467 C   0  0  0  0  0  0  0  0  0  0  0  0
  -91.8594   31.1684   -3.3327 C   0  0  0  0  0  0  0  0  0  0  0  0
  -88.5097   32.6632   -2.4798 C   0  0  0  0  0  0  0  0  0  0  0  0
  -87.9473   31.7152   -1.6929 C   0  0  0  0  0  0  0  0  0  0  0  0
  -86.7036   31.9193   -1.0806 C   0  0  0  0  0  0  0  0  0  0  0  0
  -86.1509   30.9388   -0.2832 C   0  0  0  0  0  0  0  0  0  0  0  0
  -84.9084   31.1947    0.3030 C   0  0  0  0  0  0  0  0  0  0  0  0
  -84.2742   32.4065    0.0719 C   0  0  0  0  0  0  0  0  0  0  0  0
  -83.0111   32.6093    0.6857 N   0  0  0  0  0  0  0  0  0  0  0  0
  -84.8419   33.3519   -0.7165 N   0  0  0  0  0  0  0  0  0  0  0  0
  -86.0366   33.1094   -1.2818 C   0  0  0  0  0  0  0  0  0  0  0  0
  -86.6420   34.0636   -2.0963 C   0  0  0  0  0  0  0  0  0  0  0  0
  -87.8302   33.8286   -2.6618 N   0  0  0  0  0  0  0  0  0  0  0  0
  -82.3220   31.8338    0.6478 H   0  0  0  0  0  0  0  0  0  0  0  0
  -82.7744   33.4902    1.1552 H   0  0  0  0  0  0  0  0  0  0  0  0
  -84.3467   30.1729    1.1364 C   0  0  0  0  0  0  0  0  0  0  0  0
  -85.1504   29.3709    1.9116 C   0  0  0  0  0  0  0  0  0  0  0  0
  -84.6444   28.3926    2.7232 C   0  0  0  0  0  0  0  0  0  0  0  0
  -83.2879   28.1898    2.7788 C   0  0  0  0  0  0  0  0  0  0  0  0
  -82.4479   28.9723    2.0176 C   0  0  0  0  0  0  0  0  0  0  0  0
  -82.9915   29.9580    1.2031 C   0  0  0  0  0  0  0  0  0  0  0  0
  -93.6937   31.6404   -6.3145 C   0  0  0  0  0  0  0  0  0  0  0  0
  -93.5553   31.8257   -4.9421 O   0  0  0  0  0  0  0  0  0  0  0  0
  -92.6863   30.0874   -2.9420 N   0  0  0  0  0  0  0  0  0  0  0  0
  -93.6854   30.3227   -2.6771 H   0  0  0  0  0  0  0  0  0  0  0  0
  -92.1545   28.4427   -2.8761 S   0  0  0  0  0  0  0  0  0  0  0  0
  -93.2818   27.5714   -2.3688 O   0  0  0  0  0  0  0  0  0  0  0  0
  -91.8648   27.9755   -4.2719 O   0  0  0  0  0  0  0  0  0  0  0  0
  -90.7427   28.2283   -1.9012 C   0  0  0  0  0  0  0  0  0  0  0  0
  -89.5817   27.7142   -2.4287 C   0  0  0  0  0  0  0  0  0  0  0  0
  -88.4754   27.5651   -1.6154 C   0  0  0  0  0  0  0  0  0  0  0  0
  -88.5199   27.9234   -0.2887 C   0  0  0  0  0  0  0  0  0  0  0  0
  -87.4336   27.7829    0.5323 F   0  0  0  0  0  0  0  0  0  0  0  0
  -89.6822   28.4444    0.2637 C   0  0  0  0  0  0  0  0  0  0  0  0
  -90.7692   28.5807   -0.5745 C   0  0  0  0  0  0  0  0  0  0  0  0
  -91.9205   29.0853   -0.0714 F   0  0  0  0  0  0  0  0  0  0  0  0
 26 27  1  0  0  0
 27  1  1  0  0  0
  1  2  2  0  0  0
  2  3  1  0  0  0
  3  4  2  0  0  0
  4  7  1  0  0  0
  7  8  2  0  0  0
  8  9  1  0  0  0
  9 10  2  0  0  0
 10 11  1  0  0  0
 11 20  1  0  0  0
 20 21  2  0  0  0
 21 22  1  0  0  0
 22 23  2  0  0  0
 23 24  1  0  0  0
 24 25  2  0  0  0
 11 12  2  0  0  0
 12 13  1  0  0  0
 12 14  1  0  0  0
 14 15  2  0  0  0
 15 16  1  0  0  0
 16 17  2  0  0  0
  4  5  1  0  0  0
  5  6  2  0  0  0
  6 28  1  0  0  0
 28 30  1  0  0  0
 30 31  2  0  0  0
 30 32  2  0  0  0
 30 33  1  0  0  0
 33 34  2  0  0  0
 34 35  1  0  0  0
 35 36  2  0  0  0
 36 37  1  0  0  0
 36 38  1  0  0  0
 38 39  2  0  0  0
 39 40  1  0  0  0
  6  1  1  0  0  0
 39 33  1  0  0  0
 17  7  1  0  0  0
 15  9  1  0  0  0
 25 20  1  0  0  0
 13 18  1  0  0  0
 13 19  1  0  0  0
 28 29  1  0  0  0
M  END
> <minimizedAffinity>
-10.21255

> <CNNscore>
0.1255263984

> <CNNaffinity>
7.1527662277

> <CNN_VS>
0.8978610039

> <CNNaffinity_variance>
0.3273244798

$$$$
[H]c1nc(OC([H])([H])[H])c(N([H])S(=O)(=O)c2c([H])c([H])c(F)c([H])c2F)c([H])c1-c1nc([H])c2nc(N([H])[H])c(-c3c([H])c([H])c([H])c([H])c3[H])c([H])c2c1[H]


 40 44  0  0  0  0  0  0  0  0999 V2000
  -87.5052   33.6131   -2.8073 C   0  0  0  0  0  0  0  0  0  0  0  0
  -88.4606   32.9851   -3.5074 N   0  0  0  0  0  0  0  0  0  0  0  0
  -89.0373   31.8124   -3.0964 C   0  0  0  0  0  0  0  0  0  0  0  0
  -88.6539   31.2141   -1.9226 C   0  0  0  0  0  0  0  0  0  0  0  0
  -87.6672   31.8568   -1.1938 C   0  0  0  0  0  0  0  0  0  0  0  0
  -87.0890   33.0496   -1.6233 C   0  0  0  0  0  0  0  0  0  0  0  0
  -89.2330   29.9596   -1.4295 C   0  0  0  0  0  0  0  0  0  0  0  0
  -89.0352   29.5320   -0.1598 C   0  0  0  0  0  0  0  0  0  0  0  0
  -89.5932   28.3321    0.3010 C   0  0  0  0  0  0  0  0  0  0  0  0
  -89.3776   27.9171    1.5987 C   0  0  0  0  0  0  0  0  0  0  0  0
  -89.9576   26.7126    2.0059 C   0  0  0  0  0  0  0  0  0  0  0  0
  -90.7215   25.9786    1.1106 C   0  0  0  0  0  0  0  0  0  0  0  0
  -91.2931   24.7678    1.5803 N   0  0  0  0  0  0  0  0  0  0  0  0
  -90.9160   26.4115   -0.1592 N   0  0  0  0  0  0  0  0  0  0  0  0
  -90.3598   27.5691   -0.5544 C   0  0  0  0  0  0  0  0  0  0  0  0
  -90.5441   28.0366   -1.8536 C   0  0  0  0  0  0  0  0  0  0  0  0
  -89.9937   29.1875   -2.2530 N   0  0  0  0  0  0  0  0  0  0  0  0
  -91.7469   24.7743    2.5139 H   0  0  0  0  0  0  0  0  0  0  0  0
  -91.2650   23.9064    1.0239 H   0  0  0  0  0  0  0  0  0  0  0  0
  -89.7206   26.2863    3.3536 C   0  0  0  0  0  0  0  0  0  0  0  0
  -90.1615   27.0337    4.4200 C   0  0  0  0  0  0  0  0  0  0  0  0
  -89.9442   26.6580    5.7175 C   0  0  0  0  0  0  0  0  0  0  0  0
  -89.2632   25.4963    5.9838 C   0  0  0  0  0  0  0  0  0  0  0  0
  -88.8046   24.7189    4.9433 C   0  0  0  0  0  0  0  0  0  0  0  0
  -89.0406   25.1267    3.6362 C   0  0  0  0  0  0  0  0  0  0  0  0
  -87.6653   36.0110   -3.3229 C   0  0  0  0  0  0  0  0  0  0  0  0
  -86.9531   34.8158   -3.2847 O   0  0  0  0  0  0  0  0  0  0  0  0
  -86.0762   33.7050   -0.8818 N   0  0  0  0  0  0  0  0  0  0  0  0
  -86.3479   34.6083   -0.3983 H   0  0  0  0  0  0  0  0  0  0  0  0
  -84.4565   33.1159   -0.7341 S   0  0  0  0  0  0  0  0  0  0  0  0
  -83.9435   32.7126   -2.0985 O   0  0  0  0  0  0  0  0  0  0  0  0
  -83.5764   34.2410   -0.2757 O   0  0  0  0  0  0  0  0  0  0  0  0
  -84.3163   31.7973    0.3755 C   0  0  0  0  0  0  0  0  0  0  0  0
  -85.4225   31.2610    0.9911 C   0  0  0  0  0  0  0  0  0  0  0  0
  -85.2656   30.2041    1.8663 C   0  0  0  0  0  0  0  0  0  0  0  0
  -84.0208   29.6827    2.1291 C   0  0  0  0  0  0  0  0  0  0  0  0
  -83.8461   28.6356    2.9934 F   0  0  0  0  0  0  0  0  0  0  0  0
  -82.8910   30.2095    1.5181 C   0  0  0  0  0  0  0  0  0  0  0  0
  -83.0811   31.2642    0.6495 C   0  0  0  0  0  0  0  0  0  0  0  0
  -82.0024   31.8042    0.0347 F   0  0  0  0  0  0  0  0  0  0  0  0
 26 27  1  0  0  0
 27  1  1  0  0  0
  1  2  2  0  0  0
  2  3  1  0  0  0
  3  4  2  0  0  0
  4  7  1  0  0  0
  7  8  2  0  0  0
  8  9  1  0  0  0
  9 10  2  0  0  0
 10 11  1  0  0  0
 11 20  1  0  0  0
 20 21  2  0  0  0
 21 22  1  0  0  0
 22 23  2  0  0  0
 23 24  1  0  0  0
 24 25  2  0  0  0
 11 12  2  0  0  0
 12 13  1  0  0  0
 12 14  1  0  0  0
 14 15  2  0  0  0
 15 16  1  0  0  0
 16 17  2  0  0  0
  4  5  1  0  0  0
  5  6  2  0  0  0
  6 28  1  0  0  0
 28 30  1  0  0  0
 30 31  2  0  0  0
 30 32  2  0  0  0
 30 33  1  0  0  0
 33 34  2  0  0  0
 34 35  1  0  0  0
 35 36  2  0  0  0
 36 37  1  0  0  0
 36 38  1  0  0  0
 38 39  2  0  0  0
 39 40  1  0  0  0
  6  1  1  0  0  0
 39 33  1  0  0  0
 17  7  1  0  0  0
 15  9  1  0  0  0
 25 20  1  0  0  0
 13 18  1  0  0  0
 13 19  1  0  0  0
 28 29  1  0  0  0
M  END
> <minimizedAffinity>
-9.68613

> <CNNscore>
0.1207028925

> <CNNaffinity>
7.1062788963

> <CNN_VS>
0.8577483892

> <CNNaffinity_variance>
0.3474493027

$$$$
[H]c1nc(OC([H])([H])[H])c(N([H])S(=O)(=O)c2c([H])c([H])c(F)c([H])c2F)c([H])c1-c1nc([H])c2nc(N([H])[H])c(-c3c([H])c([H])c([H])c([H])c3[H])c([H])c2c1[H]


 40 44  0  0  0  0  0  0  0  0999 V2000
  -84.5725   28.7896    2.0460 C   0  0  0  0  0  0  0  0  0  0  0  0
  -83.9399   29.9650    1.9218 N   0  0  0  0  0  0  0  0  0  0  0  0
  -84.4047   30.9820    1.1304 C   0  0  0  0  0  0  0  0  0  0  0  0
  -85.5655   30.8399    0.4127 C   0  0  0  0  0  0  0  0  0  0  0  0
  -86.2248   29.6282    0.5358 C   0  0  0  0  0  0  0  0  0  0  0  0
  -85.7410   28.6020    1.3446 C   0  0  0  0  0  0  0  0  0  0  0  0
  -86.1140   31.8910   -0.4513 C   0  0  0  0  0  0  0  0  0  0  0  0
  -87.1994   31.6791   -1.2330 C   0  0  0  0  0  0  0  0  0  0  0  0
  -87.7152   32.6903   -2.0545 C   0  0  0  0  0  0  0  0  0  0  0  0
  -88.8219   32.4507   -2.8422 C   0  0  0  0  0  0  0  0  0  0  0  0
  -89.2946   33.4943   -3.6424 C   0  0  0  0  0  0  0  0  0  0  0  0
  -88.6501   34.7224   -3.6242 C   0  0  0  0  0  0  0  0  0  0  0  0
  -89.1778   35.7484   -4.4502 N   0  0  0  0  0  0  0  0  0  0  0  0
  -87.5639   34.9288   -2.8399 N   0  0  0  0  0  0  0  0  0  0  0  0
  -87.1065   33.9276   -2.0691 C   0  0  0  0  0  0  0  0  0  0  0  0
  -85.9923   34.1131   -1.2539 C   0  0  0  0  0  0  0  0  0  0  0  0
  -85.5324   33.1213   -0.4847 N   0  0  0  0  0  0  0  0  0  0  0  0
  -90.2068   35.8862   -4.4569 H   0  0  0  0  0  0  0  0  0  0  0  0
  -88.5718   36.3419   -5.0271 H   0  0  0  0  0  0  0  0  0  0  0  0
  -90.4399   33.2325   -4.4632 C   0  0  0  0  0  0  0  0  0  0  0  0
  -90.5157   33.7169   -5.7476 C   0  0  0  0  0  0  0  0  0  0  0  0
  -91.5984   33.4912   -6.5530 C   0  0  0  0  0  0  0  0  0  0  0  0
  -92.6568   32.7568   -6.0789 C   0  0  0  0  0  0  0  0  0  0  0  0
  -92.6202   32.2536   -4.7972 C   0  0  0  0  0  0  0  0  0  0  0  0
  -91.5070   32.4997   -4.0031 C   0  0  0  0  0  0  0  0  0  0  0  0
  -82.7237   27.3485    2.7853 C   0  0  0  0  0  0  0  0  0  0  0  0
  -84.0422   27.7848    2.8759 O   0  0  0  0  0  0  0  0  0  0  0  0
  -86.4113   27.3606    1.4670 N   0  0  0  0  0  0  0  0  0  0  0  0
  -85.8048   26.5035    1.6126 H   0  0  0  0  0  0  0  0  0  0  0  0
  -88.1301   27.1823    1.3894 S   0  0  0  0  0  0  0  0  0  0  0  0
  -88.4846   25.7131    1.4453 O   0  0  0  0  0  0  0  0  0  0  0  0
  -88.7328   27.8016    2.6156 O   0  0  0  0  0  0  0  0  0  0  0  0
  -88.8221   27.9153   -0.0153 C   0  0  0  0  0  0  0  0  0  0  0  0
  -89.7789   28.8971    0.0891 C   0  0  0  0  0  0  0  0  0  0  0  0
  -90.3009   29.4599   -1.0592 C   0  0  0  0  0  0  0  0  0  0  0  0
  -89.8770   29.0521   -2.3020 C   0  0  0  0  0  0  0  0  0  0  0  0
  -90.3828   29.5984   -3.4507 F   0  0  0  0  0  0  0  0  0  0  0  0
  -88.9119   28.0624   -2.4295 C   0  0  0  0  0  0  0  0  0  0  0  0
  -88.4106   27.5205   -1.2643 C   0  0  0  0  0  0  0  0  0  0  0  0
  -87.4677   26.5525   -1.3490 F   0  0  0  0  0  0  0  0  0  0  0  0
 26 27  1  0  0  0
 27  1  1  0  0  0
  1  2  2  0  0  0
  2  3  1  0  0  0
  3  4  2  0  0  0
  4  7  1  0  0  0
  7  8  2  0  0  0
  8  9  1  0  0  0
  9 10  2  0  0  0
 10 11  1  0  0  0
 11 20  1  0  0  0
 20 21  2  0  0  0
 21 22  1  0  0  0
 22 23  2  0  0  0
 23 24  1  0  0  0
 24 25  2  0  0  0
 11 12  2  0  0  0
 12 13  1  0  0  0
 12 14  1  0  0  0
 14 15  2  0  0  0
 15 16  1  0  0  0
 16 17  2  0  0  0
  4  5  1  0  0  0
  5  6  2  0  0  0
  6 28  1  0  0  0
 28 30  1  0  0  0
 30 31  2  0  0  0
 30 32  2  0  0  0
 30 33  1  0  0  0
 33 34  2  0  0  0
 34 35  1  0  0  0
 35 36  2  0  0  0
 36 37  1  0  0  0
 36 38  1  0  0  0
 38 39  2  0  0  0
 39 40  1  0  0  0
  6  1  1  0  0  0
 39 33  1  0  0  0
 17  7  1  0  0  0
 15  9  1  0  0  0
 25 20  1  0  0  0
 13 18  1  0  0  0
 13 19  1  0  0  0
 28 29  1  0  0  0
M  END
> <minimizedAffinity>
-8.65049

> <CNNscore>
0.0931566507

> <CNNaffinity>
7.0760993958

> <CNN_VS>
0.6591857076

> <CNNaffinity_variance>
0.3378531933

$$$$
[H]c1nc(OC([H])([H])[H])c(N([H])S(=O)(=O)c2c([H])c([H])c(F)c([H])c2F)c([H])c1-c1nc([H])c2nc(N([H])[H])c(-c3c([H])c([H])c([H])c([H])c3[H])c([H])c2c1[H]


 40 44  0  0  0  0  0  0  0  0999 V2000
  -88.6327   27.0724    1.0675 C   0  0  0  0  0  0  0  0  0  0  0  0
  -89.9202   27.2860    0.7607 N   0  0  0  0  0  0  0  0  0  0  0  0
  -90.3209   28.1932   -0.1843 C   0  0  0  0  0  0  0  0  0  0  0  0
  -89.4012   28.9413   -0.8752 C   0  0  0  0  0  0  0  0  0  0  0  0
  -88.0690   28.7264   -0.5637 C   0  0  0  0  0  0  0  0  0  0  0  0
  -87.6751   27.8001    0.3998 C   0  0  0  0  0  0  0  0  0  0  0  0
  -89.7675   29.9277   -1.8975 C   0  0  0  0  0  0  0  0  0  0  0  0
  -89.1347   31.1208   -1.9982 C   0  0  0  0  0  0  0  0  0  0  0  0
  -89.4924   32.0557   -2.9787 C   0  0  0  0  0  0  0  0  0  0  0  0
  -88.8333   33.2646   -3.0616 C   0  0  0  0  0  0  0  0  0  0  0  0
  -89.2304   34.1601   -4.0582 C   0  0  0  0  0  0  0  0  0  0  0  0
  -90.2589   33.8162   -4.9231 C   0  0  0  0  0  0  0  0  0  0  0  0
  -90.6151   34.7600   -5.9210 N   0  0  0  0  0  0  0  0  0  0  0  0
  -90.8888   32.6205   -4.8176 N   0  0  0  0  0  0  0  0  0  0  0  0
  -90.5098   31.7570   -3.8604 C   0  0  0  0  0  0  0  0  0  0  0  0
  -91.1404   30.5218   -3.7302 C   0  0  0  0  0  0  0  0  0  0  0  0
  -90.7679   29.6581   -2.7803 N   0  0  0  0  0  0  0  0  0  0  0  0
  -89.8496   35.2258   -6.4452 H   0  0  0  0  0  0  0  0  0  0  0  0
  -91.5949   34.9835   -6.1271 H   0  0  0  0  0  0  0  0  0  0  0  0
  -88.5448   35.4166   -4.1305 C   0  0  0  0  0  0  0  0  0  0  0  0
  -87.4211   35.5658   -4.9084 C   0  0  0  0  0  0  0  0  0  0  0  0
  -86.7400   36.7494   -4.9921 C   0  0  0  0  0  0  0  0  0  0  0  0
  -87.1792   37.8381   -4.2808 C   0  0  0  0  0  0  0  0  0  0  0  0
  -88.3013   37.7302   -3.4892 C   0  0  0  0  0  0  0  0  0  0  0  0
  -88.9717   36.5149   -3.4245 C   0  0  0  0  0  0  0  0  0  0  0  0
  -89.0208   25.9468    3.2178 C   0  0  0  0  0  0  0  0  0  0  0  0
  -88.2869   26.1254    2.0488 O   0  0  0  0  0  0  0  0  0  0  0  0
  -86.3136   27.5834    0.7231 N   0  0  0  0  0  0  0  0  0  0  0  0
  -85.8099   26.8239    0.1817 H   0  0  0  0  0  0  0  0  0  0  0  0
  -85.4566   28.4763    1.9317 S   0  0  0  0  0  0  0  0  0  0  0  0
  -86.4232   28.9189    3.0074 O   0  0  0  0  0  0  0  0  0  0  0  0
  -84.4794   27.5580    2.6042 O   0  0  0  0  0  0  0  0  0  0  0  0
  -84.6064   29.8378    1.2892 C   0  0  0  0  0  0  0  0  0  0  0  0
  -83.2328   29.8957    1.3073 C   0  0  0  0  0  0  0  0  0  0  0  0
  -82.5939   30.9999    0.7779 C   0  0  0  0  0  0  0  0  0  0  0  0
  -83.3118   32.0390    0.2345 C   0  0  0  0  0  0  0  0  0  0  0  0
  -82.6958   33.1411   -0.2947 F   0  0  0  0  0  0  0  0  0  0  0  0
  -84.6993   32.0004    0.2063 C   0  0  0  0  0  0  0  0  0  0  0  0
  -85.3072   30.8844    0.7427 C   0  0  0  0  0  0  0  0  0  0  0  0
  -86.6591   30.8111    0.7331 F   0  0  0  0  0  0  0  0  0  0  0  0
 26 27  1  0  0  0
 27  1  1  0  0  0
  1  2  2  0  0  0
  2  3  1  0  0  0
  3  4  2  0  0  0
  4  7  1  0  0  0
  7  8  2  0  0  0
  8  9  1  0  0  0
  9 10  2  0  0  0
 10 11  1  0  0  0
 11 20  1  0  0  0
 20 21  2  0  0  0
 21 22  1  0  0  0
 22 23  2  0  0  0
 23 24  1  0  0  0
 24 25  2  0  0  0
 11 12  2  0  0  0
 12 13  1  0  0  0
 12 14  1  0  0  0
 14 15  2  0  0  0
 15 16  1  0  0  0
 16 17  2  0  0  0
  4  5  1  0  0  0
  5  6  2  0  0  0
  6 28  1  0  0  0
 28 30  1  0  0  0
 30 31  2  0  0  0
 30 32  2  0  0  0
 30 33  1  0  0  0
 33 34  2  0  0  0
 34 35  1  0  0  0
 35 36  2  0  0  0
 36 37  1  0  0  0
 36 38  1  0  0  0
 38 39  2  0  0  0
 39 40  1  0  0  0
  6  1  1  0  0  0
 39 33  1  0  0  0
 17  7  1  0  0  0
 15  9  1  0  0  0
 25 20  1  0  0  0
 13 18  1  0  0  0
 13 19  1  0  0  0
 28 29  1  0  0  0
M  END
> <minimizedAffinity>
-9.54165

> <CNNscore>
0.0662524626

> <CNNaffinity>
6.6821503639

> <CNN_VS>
0.4427089095

> <CNNaffinity_variance>
0.6524826884

$$$$
[H]c1nc(OC([H])([H])[H])c(N([H])S(=O)(=O)c2c([H])c([H])c(F)c([H])c2F)c([H])c1-c1nc([H])c2nc(N([H])[H])c(-c3c([H])c([H])c([H])c([H])c3[H])c([H])c2c1[H]


 40 44  0  0  0  0  0  0  0  0999 V2000
  -92.2317   25.7853   -2.2637 C   0  0  0  0  0  0  0  0  0  0  0  0
  -92.5059   25.8777   -3.5727 N   0  0  0  0  0  0  0  0  0  0  0  0
  -92.5321   27.0700   -4.2468 C   0  0  0  0  0  0  0  0  0  0  0  0
  -92.2729   28.2505   -3.5972 C   0  0  0  0  0  0  0  0  0  0  0  0
  -91.9890   28.1633   -2.2445 C   0  0  0  0  0  0  0  0  0  0  0  0
  -91.9654   26.9437   -1.5711 C   0  0  0  0  0  0  0  0  0  0  0  0
  -92.2859   29.5578   -4.2629 C   0  0  0  0  0  0  0  0  0  0  0  0
  -91.3403   30.4950   -4.0152 C   0  0  0  0  0  0  0  0  0  0  0  0
  -91.3621   31.7405   -4.6569 C   0  0  0  0  0  0  0  0  0  0  0  0
  -90.3879   32.6793   -4.3882 C   0  0  0  0  0  0  0  0  0  0  0  0
  -90.4575   33.9049   -5.0561 C   0  0  0  0  0  0  0  0  0  0  0  0
  -91.4860   34.1413   -5.9562 C   0  0  0  0  0  0  0  0  0  0  0  0
  -91.5029   35.3996   -6.6118 N   0  0  0  0  0  0  0  0  0  0  0  0
  -92.4300   33.1995   -6.2001 N   0  0  0  0  0  0  0  0  0  0  0  0
  -92.3664   32.0199   -5.5596 C   0  0  0  0  0  0  0  0  0  0  0  0
  -93.3235   31.0349   -5.7920 C   0  0  0  0  0  0  0  0  0  0  0  0
  -93.2659   29.8593   -5.1583 N   0  0  0  0  0  0  0  0  0  0  0  0
  -90.6072   35.7623   -6.9912 H   0  0  0  0  0  0  0  0  0  0  0  0
  -92.3667   35.9434   -6.7138 H   0  0  0  0  0  0  0  0  0  0  0  0
  -89.4453   34.8765   -4.7636 C   0  0  0  0  0  0  0  0  0  0  0  0
  -89.5793   35.7403   -3.7025 C   0  0  0  0  0  0  0  0  0  0  0  0
  -88.6350   36.6837   -3.4022 C   0  0  0  0  0  0  0  0  0  0  0  0
  -87.5065   36.7865   -4.1770 C   0  0  0  0  0  0  0  0  0  0  0  0
  -87.3342   35.9397   -5.2496 C   0  0  0  0  0  0  0  0  0  0  0  0
  -88.3108   34.9919   -5.5296 C   0  0  0  0  0  0  0  0  0  0  0  0
  -91.4711   23.4539   -2.0979 C   0  0  0  0  0  0  0  0  0  0  0  0
  -92.2207   24.5292   -1.6300 O   0  0  0  0  0  0  0  0  0  0  0  0
  -91.6807   26.8537   -0.1869 N   0  0  0  0  0  0  0  0  0  0  0  0
  -92.5116   26.8424    0.4712 H   0  0  0  0  0  0  0  0  0  0  0  0
  -90.0802   26.7660    0.4636 S   0  0  0  0  0  0  0  0  0  0  0  0
  -89.3959   25.5210   -0.0552 O   0  0  0  0  0  0  0  0  0  0  0  0
  -89.2851   27.9253   -0.0601 O   0  0  0  0  0  0  0  0  0  0  0  0
  -90.0516   26.7926    2.1921 C   0  0  0  0  0  0  0  0  0  0  0  0
  -89.5669   25.7283    2.9150 C   0  0  0  0  0  0  0  0  0  0  0  0
  -89.5571   25.7940    4.2946 C   0  0  0  0  0  0  0  0  0  0  0  0
  -90.0246   26.9071    4.9526 C   0  0  0  0  0  0  0  0  0  0  0  0
  -90.0227   26.9901    6.3190 F   0  0  0  0  0  0  0  0  0  0  0  0
  -90.5182   27.9926    4.2416 C   0  0  0  0  0  0  0  0  0  0  0  0
  -90.5143   27.8959    2.8656 C   0  0  0  0  0  0  0  0  0  0  0  0
  -90.9882   28.9350    2.1383 F   0  0  0  0  0  0  0  0  0  0  0  0
 26 27  1  0  0  0
 27  1  1  0  0  0
  1  2  2  0  0  0
  2  3  1  0  0  0
  3  4  2  0  0  0
  4  7  1  0  0  0
  7  8  2  0  0  0
  8  9  1  0  0  0
  9 10  2  0  0  0
 10 11  1  0  0  0
 11 20  1  0  0  0
 20 21  2  0  0  0
 21 22  1  0  0  0
 22 23  2  0  0  0
 23 24  1  0  0  0
 24 25  2  0  0  0
 11 12  2  0  0  0
 12 13  1  0  0  0
 12 14  1  0  0  0
 14 15  2  0  0  0
 15 16  1  0  0  0
 16 17  2  0  0  0
  4  5  1  0  0  0
  5  6  2  0  0  0
  6 28  1  0  0  0
 28 30  1  0  0  0
 30 31  2  0  0  0
 30 32  2  0  0  0
 30 33  1  0  0  0
 33 34  2  0  0  0
 34 35  1  0  0  0
 35 36  2  0  0  0
 36 37  1  0  0  0
 36 38  1  0  0  0
 38 39  2  0  0  0
 39 40  1  0  0  0
  6  1  1  0  0  0
 39 33  1  0  0  0
 17  7  1  0  0  0
 15  9  1  0  0  0
 25 20  1  0  0  0
 13 18  1  0  0  0
 13 19  1  0  0  0
 28 29  1  0  0  0
M  END
> <minimizedAffinity>
-8.01467

> <CNNscore>
0.0517390706

> <CNNaffinity>
6.0045733452

> <CNN_VS>
0.3106710315

> <CNNaffinity_variance>
0.1105122343

$$$$
[H]c1nc(OC([H])([H])[H])c(N([H])S(=O)(=O)c2c([H])c([H])c(F)c([H])c2F)c([H])c1-c1nc([H])c2nc(N([H])[H])c(-c3c([H])c([H])c([H])c([H])c3[H])c([H])c2c1[H]


 40 44  0  0  0  0  0  0  0  0999 V2000
  -87.6055   27.0526    1.9408 C   0  0  0  0  0  0  0  0  0  0  0  0
  -86.6527   27.9224    2.3053 N   0  0  0  0  0  0  0  0  0  0  0  0
  -86.4111   29.0899    1.6307 C   0  0  0  0  0  0  0  0  0  0  0  0
  -87.1507   29.4292    0.5258 C   0  0  0  0  0  0  0  0  0  0  0  0
  -88.1369   28.5355    0.1429 C   0  0  0  0  0  0  0  0  0  0  0  0
  -88.3722   27.3513    0.8384 C   0  0  0  0  0  0  0  0  0  0  0  0
  -86.9402   30.6638   -0.2382 C   0  0  0  0  0  0  0  0  0  0  0  0
  -87.8805   31.1503   -1.0827 C   0  0  0  0  0  0  0  0  0  0  0  0
  -87.6691   32.3307   -1.8076 C   0  0  0  0  0  0  0  0  0  0  0  0
  -88.6418   32.8068   -2.6619 C   0  0  0  0  0  0  0  0  0  0  0  0
  -88.3789   33.9884   -3.3603 C   0  0  0  0  0  0  0  0  0  0  0  0
  -87.1680   34.6404   -3.1794 C   0  0  0  0  0  0  0  0  0  0  0  0
  -86.9580   35.8400   -3.9076 N   0  0  0  0  0  0  0  0  0  0  0  0
  -86.2304   34.1486   -2.3329 N   0  0  0  0  0  0  0  0  0  0  0  0
  -86.4797   33.0127   -1.6598 C   0  0  0  0  0  0  0  0  0  0  0  0
  -85.5334   32.4859   -0.7837 C   0  0  0  0  0  0  0  0  0  0  0  0
  -85.7753   31.3564   -0.1109 N   0  0  0  0  0  0  0  0  0  0  0  0
  -87.7326   36.5303   -3.9415 H   0  0  0  0  0  0  0  0  0  0  0  0
  -86.0727   36.0307   -4.3896 H   0  0  0  0  0  0  0  0  0  0  0  0
  -89.3927   34.4700   -4.2516 C   0  0  0  0  0  0  0  0  0  0  0  0
  -89.5740   33.9016   -5.4902 C   0  0  0  0  0  0  0  0  0  0  0  0
  -90.5272   34.3436   -6.3666 C   0  0  0  0  0  0  0  0  0  0  0  0
  -91.3410   35.3913   -6.0141 C   0  0  0  0  0  0  0  0  0  0  0  0
  -91.1914   35.9886   -4.7820 C   0  0  0  0  0  0  0  0  0  0  0  0
  -90.2145   35.5176   -3.9136 C   0  0  0  0  0  0  0  0  0  0  0  0
  -88.8692   25.6960    3.5544 C   0  0  0  0  0  0  0  0  0  0  0  0
  -87.8031   25.8700    2.6768 O   0  0  0  0  0  0  0  0  0  0  0  0
  -89.3767   26.4341    0.4446 N   0  0  0  0  0  0  0  0  0  0  0  0
  -89.0640   25.4410    0.2454 H   0  0  0  0  0  0  0  0  0  0  0  0
  -91.0474   26.8492    0.2754 S   0  0  0  0  0  0  0  0  0  0  0  0
  -91.8790   25.5860    0.2639 O   0  0  0  0  0  0  0  0  0  0  0  0
  -91.4765   27.6175    1.4904 O   0  0  0  0  0  0  0  0  0  0  0  0
  -91.3686   27.7941   -1.1365 C   0  0  0  0  0  0  0  0  0  0  0  0
  -91.6721   27.2010   -2.3391 C   0  0  0  0  0  0  0  0  0  0  0  0
  -91.9276   27.9940   -3.4407 C   0  0  0  0  0  0  0  0  0  0  0  0
  -91.8826   29.3653   -3.3503 C   0  0  0  0  0  0  0  0  0  0  0  0
  -92.1330   30.1671   -4.4312 F   0  0  0  0  0  0  0  0  0  0  0  0
  -91.5782   29.9841   -2.1454 C   0  0  0  0  0  0  0  0  0  0  0  0
  -91.3281   29.1646   -1.0644 C   0  0  0  0  0  0  0  0  0  0  0  0
  -91.0277   29.7322    0.1275 F   0  0  0  0  0  0  0  0  0  0  0  0
 26 27  1  0  0  0
 27  1  1  0  0  0
  1  2  2  0  0  0
  2  3  1  0  0  0
  3  4  2  0  0  0
  4  7  1  0  0  0
  7  8  2  0  0  0
  8  9  1  0  0  0
  9 10  2  0  0  0
 10 11  1  0  0  0
 11 20  1  0  0  0
 20 21  2  0  0  0
 21 22  1  0  0  0
 22 23  2  0  0  0
 23 24  1  0  0  0
 24 25  2  0  0  0
 11 12  2  0  0  0
 12 13  1  0  0  0
 12 14  1  0  0  0
 14 15  2  0  0  0
 15 16  1  0  0  0
 16 17  2  0  0  0
  4  5  1  0  0  0
  5  6  2  0  0  0
  6 28  1  0  0  0
 28 30  1  0  0  0
 30 31  2  0  0  0
 30 32  2  0  0  0
 30 33  1  0  0  0
 33 34  2  0  0  0
 34 35  1  0  0  0
 35 36  2  0  0  0
 36 37  1  0  0  0
 36 38  1  0  0  0
 38 39  2  0  0  0
 39 40  1  0  0  0
  6  1  1  0  0  0
 39 33  1  0  0  0
 17  7  1  0  0  0
 15  9  1  0  0  0
 25 20  1  0  0  0
 13 18  1  0  0  0
 13 19  1  0  0  0
 28 29  1  0  0  0
M  END
> <minimizedAffinity>
-7.95107

> <CNNscore>
0.0489937663

> <CNNaffinity>
6.5411033630

> <CNN_VS>
0.3204732835

> <CNNaffinity_variance>
0.4079679549

$$$$
[H]c1nc(OC([H])([H])[H])c(N([H])S(=O)(=O)c2c([H])c([H])c(F)c([H])c2F)c([H])c1-c1nc([H])c2nc(N([H])[H])c(-c3c([H])c([H])c([H])c([H])c3[H])c([H])c2c1[H]


 40 44  0  0  0  0  0  0  0  0999 V2000
  -87.6532   31.9751   -3.1772 C   0  0  0  0  0  0  0  0  0  0  0  0
  -88.0253   31.0139   -4.0345 N   0  0  0  0  0  0  0  0  0  0  0  0
  -88.3297   29.7383   -3.6384 C   0  0  0  0  0  0  0  0  0  0  0  0
  -88.2657   29.3790   -2.3157 C   0  0  0  0  0  0  0  0  0  0  0  0
  -87.8819   30.3665   -1.4238 C   0  0  0  0  0  0  0  0  0  0  0  0
  -87.5752   31.6604   -1.8403 C   0  0  0  0  0  0  0  0  0  0  0  0
  -88.5790   28.0307   -1.8296 C   0  0  0  0  0  0  0  0  0  0  0  0
  -89.6857   27.3642   -2.2357 C   0  0  0  0  0  0  0  0  0  0  0  0
  -89.9754   26.0765   -1.7653 C   0  0  0  0  0  0  0  0  0  0  0  0
  -91.1090   25.4174   -2.1933 C   0  0  0  0  0  0  0  0  0  0  0  0
  -91.3495   24.1352   -1.6923 C   0  0  0  0  0  0  0  0  0  0  0  0
  -90.4579   23.5684   -0.7936 C   0  0  0  0  0  0  0  0  0  0  0  0
  -90.7475   22.2611   -0.3239 N   0  0  0  0  0  0  0  0  0  0  0  0
  -89.3517   24.2402   -0.3905 N   0  0  0  0  0  0  0  0  0  0  0  0
  -89.1172   25.4734   -0.8700 C   0  0  0  0  0  0  0  0  0  0  0  0
  -87.9880   26.1855   -0.4722 C   0  0  0  0  0  0  0  0  0  0  0  0
  -87.7488   27.4126   -0.9456 N   0  0  0  0  0  0  0  0  0  0  0  0
  -91.0533   21.5518   -1.0175 H   0  0  0  0  0  0  0  0  0  0  0  0
  -90.6612   22.0125    0.6676 H   0  0  0  0  0  0  0  0  0  0  0  0
  -92.5343   23.4624   -2.1370 C   0  0  0  0  0  0  0  0  0  0  0  0
  -92.5249   22.6904   -3.2746 C   0  0  0  0  0  0  0  0  0  0  0  0
  -93.6408   22.0423   -3.7293 C   0  0  0  0  0  0  0  0  0  0  0  0
  -94.8214   22.1554   -3.0383 C   0  0  0  0  0  0  0  0  0  0  0  0
  -94.8730   22.9197   -1.8935 C   0  0  0  0  0  0  0  0  0  0  0  0
  -93.7232   23.5660   -1.4567 C   0  0  0  0  0  0  0  0  0  0  0  0
  -88.0602   33.8761   -4.6812 C   0  0  0  0  0  0  0  0  0  0  0  0
  -87.3538   33.2664   -3.6486 O   0  0  0  0  0  0  0  0  0  0  0  0
  -87.1773   32.6696   -0.9302 N   0  0  0  0  0  0  0  0  0  0  0  0
  -87.9518   33.2007   -0.4386 H   0  0  0  0  0  0  0  0  0  0  0  0
  -85.5278   33.0673   -0.5937 S   0  0  0  0  0  0  0  0  0  0  0  0
  -84.8021   33.3363   -1.8931 O   0  0  0  0  0  0  0  0  0  0  0  0
  -85.4917   34.3545    0.1760 O   0  0  0  0  0  0  0  0  0  0  0  0
  -84.7088   31.8421    0.3105 C   0  0  0  0  0  0  0  0  0  0  0  0
  -85.4050   30.9006    1.0312 C   0  0  0  0  0  0  0  0  0  0  0  0
  -84.7107   29.9359    1.7348 C   0  0  0  0  0  0  0  0  0  0  0  0
  -83.3362   29.9050    1.7238 C   0  0  0  0  0  0  0  0  0  0  0  0
  -82.6314   28.9565    2.4149 F   0  0  0  0  0  0  0  0  0  0  0  0
  -82.6142   30.8462    1.0026 C   0  0  0  0  0  0  0  0  0  0  0  0
  -83.3366   31.7961    0.3108 C   0  0  0  0  0  0  0  0  0  0  0  0
  -82.6669   32.7307   -0.4042 F   0  0  0  0  0  0  0  0  0  0  0  0
 26 27  1  0  0  0
 27  1  1  0  0  0
  1  2  2  0  0  0
  2  3  1  0  0  0
  3  4  2  0  0  0
  4  7  1  0  0  0
  7  8  2  0  0  0
  8  9  1  0  0  0
  9 10  2  0  0  0
 10 11  1  0  0  0
 11 20  1  0  0  0
 20 21  2  0  0  0
 21 22  1  0  0  0
 22 23  2  0  0  0
 23 24  1  0  0  0
 24 25  2  0  0  0
 11 12  2  0  0  0
 12 13  1  0  0  0
 12 14  1  0  0  0
 14 15  2  0  0  0
 15 16  1  0  0  0
 16 17  2  0  0  0
  4  5  1  0  0  0
  5  6  2  0  0  0
  6 28  1  0  0  0
 28 30  1  0  0  0
 30 31  2  0  0  0
 30 32  2  0  0  0
 30 33  1  0  0  0
 33 34  2  0  0  0
 34 35  1  0  0  0
 35 36  2  0  0  0
 36 37  1  0  0  0
 36 38  1  0  0  0
 38 39  2  0  0  0
 39 40  1  0  0  0
  6  1  1  0  0  0
 39 33  1  0  0  0
 17  7  1  0  0  0
 15  9  1  0  0  0
 25 20  1  0  0  0
 13 18  1  0  0  0
 13 19  1  0  0  0
 28 29  1  0  0  0
M  END
> <minimizedAffinity>
-9.51918

> <CNNscore>
0.0484293140

> <CNNaffinity>
6.2720870972

> <CNN_VS>
0.3037528694

> <CNNaffinity_variance>
0.5570298433

$$$$
[H]c1nc(OC([H])([H])[H])c(N([H])S(=O)(=O)c2c([H])c([H])c(F)c([H])c2F)c([H])c1-c1nc([H])c2nc(N([H])[H])c(-c3c([H])c([H])c([H])c([H])c3[H])c([H])c2c1[H]


 40 44  0  0  0  0  0  0  0  0999 V2000
  -86.2411   28.4078    0.9879 C   0  0  0  0  0  0  0  0  0  0  0  0
  -85.8526   29.6899    1.0391 N   0  0  0  0  0  0  0  0  0  0  0  0
  -86.4229   30.6730    0.2743 C   0  0  0  0  0  0  0  0  0  0  0  0
  -87.4408   30.3828   -0.5989 C   0  0  0  0  0  0  0  0  0  0  0  0
  -87.8476   29.0603   -0.6576 C   0  0  0  0  0  0  0  0  0  0  0  0
  -87.2590   28.0701    0.1263 C   0  0  0  0  0  0  0  0  0  0  0  0
  -88.0911   31.3904   -1.4439 C   0  0  0  0  0  0  0  0  0  0  0  0
  -87.5366   32.6068   -1.6603 C   0  0  0  0  0  0  0  0  0  0  0  0
  -88.1663   33.5619   -2.4695 C   0  0  0  0  0  0  0  0  0  0  0  0
  -87.5820   34.7944   -2.6751 C   0  0  0  0  0  0  0  0  0  0  0  0
  -88.2531   35.7093   -3.4910 C   0  0  0  0  0  0  0  0  0  0  0  0
  -89.4677   35.3605   -4.0628 C   0  0  0  0  0  0  0  0  0  0  0  0
  -90.1009   36.3251   -4.8887 N   0  0  0  0  0  0  0  0  0  0  0  0
  -90.0181   34.1415   -3.8426 N   0  0  0  0  0  0  0  0  0  0  0  0
  -89.3758   33.2592   -3.0586 C   0  0  0  0  0  0  0  0  0  0  0  0
  -89.9193   31.9997   -2.8161 C   0  0  0  0  0  0  0  0  0  0  0  0
  -89.2853   31.1174   -2.0373 N   0  0  0  0  0  0  0  0  0  0  0  0
  -89.5154   36.8340   -5.5787 H   0  0  0  0  0  0  0  0  0  0  0  0
  -91.1049   36.5225   -4.8157 H   0  0  0  0  0  0  0  0  0  0  0  0
  -87.6416   36.9899   -3.6915 C   0  0  0  0  0  0  0  0  0  0  0  0
  -87.9570   38.0586   -2.8861 C   0  0  0  0  0  0  0  0  0  0  0  0
  -87.3969   39.2951   -3.0569 C   0  0  0  0  0  0  0  0  0  0  0  0
  -86.4853   39.4951   -4.0635 C   0  0  0  0  0  0  0  0  0  0  0  0
  -86.1422   38.4501   -4.8927 C   0  0  0  0  0  0  0  0  0  0  0  0
  -86.7281   37.2059   -4.6944 C   0  0  0  0  0  0  0  0  0  0  0  0
  -84.3785   27.6570    2.4050 C   0  0  0  0  0  0  0  0  0  0  0  0
  -85.6141   27.4455    1.8003 O   0  0  0  0  0  0  0  0  0  0  0  0
  -87.6703   26.7165    0.0631 N   0  0  0  0  0  0  0  0  0  0  0  0
  -86.9765   26.0258   -0.3433 H   0  0  0  0  0  0  0  0  0  0  0  0
  -89.2142   26.1528    0.6024 S   0  0  0  0  0  0  0  0  0  0  0  0
  -90.3035   26.8388   -0.1915 O   0  0  0  0  0  0  0  0  0  0  0  0
  -89.3285   24.6908    0.2865 O   0  0  0  0  0  0  0  0  0  0  0  0
  -89.4649   26.3888    2.2967 C   0  0  0  0  0  0  0  0  0  0  0  0
  -89.2975   25.3602    3.1937 C   0  0  0  0  0  0  0  0  0  0  0  0
  -89.5025   25.5942    4.5394 C   0  0  0  0  0  0  0  0  0  0  0  0
  -89.8708   26.8390    4.9924 C   0  0  0  0  0  0  0  0  0  0  0  0
  -90.0783   27.0894    6.3221 F   0  0  0  0  0  0  0  0  0  0  0  0
  -90.0451   27.8911    4.1035 C   0  0  0  0  0  0  0  0  0  0  0  0
  -89.8328   27.6252    2.7667 C   0  0  0  0  0  0  0  0  0  0  0  0
  -89.9933   28.6268    1.8699 F   0  0  0  0  0  0  0  0  0  0  0  0
 26 27  1  0  0  0
 27  1  1  0  0  0
  1  2  2  0  0  0
  2  3  1  0  0  0
  3  4  2  0  0  0
  4  7  1  0  0  0
  7  8  2  0  0  0
  8  9  1  0  0  0
  9 10  2  0  0  0
 10 11  1  0  0  0
 11 20  1  0  0  0
 20 21  2  0  0  0
 21 22  1  0  0  0
 22 23  2  0  0  0
 23 24  1  0  0  0
 24 25  2  0  0  0
 11 12  2  0  0  0
 12 13  1  0  0  0
 12 14  1  0  0  0
 14 15  2  0  0  0
 15 16  1  0  0  0
 16 17  2  0  0  0
  4  5  1  0  0  0
  5  6  2  0  0  0
  6 28  1  0  0  0
 28 30  1  0  0  0
 30 31  2  0  0  0
 30 32  2  0  0  0
 30 33  1  0  0  0
 33 34  2  0  0  0
 34 35  1  0  0  0
 35 36  2  0  0  0
 36 37  1  0  0  0
 36 38  1  0  0  0
 38 39  2  0  0  0
 39 40  1  0  0  0
  6  1  1  0  0  0
 39 33  1  0  0  0
 17  7  1  0  0  0
 15  9  1  0  0  0
 25 20  1  0  0  0
 13 18  1  0  0  0
 13 19  1  0  0  0
 28 29  1  0  0  0
M  END
> <minimizedAffinity>
-9.44694

> <CNNscore>
0.0421498790

> <CNNaffinity>
6.3034524918

> <CNN_VS>
0.2656897604

> <CNNaffinity_variance>
0.4140793383

$$$$
[H]c1c([H])c(S(=O)(=O)C([H])([H])C([H])([H])C([H])([H])C([H])([H])C([H])([H])C([H])([H])[H])c(Cl)c(Cl)c1C(=O)C([H])([H])C([H])([H])N1C([H])([H])C1([H])C([H])([H])[H]


 25 26  0  0  0  0  0  0  0  0999 V2000
  -85.8260   29.2240    1.0674 C   0  0  0  0  0  0  0  0  0  0  0  0
  -86.7616   29.9135    0.3153 C   0  0  0  0  0  0  0  0  0  0  0  0
  -86.4644   31.1303   -0.2378 C   0  0  0  0  0  0  0  0  0  0  0  0
  -85.2420   31.7134   -0.0780 C   0  0  0  0  0  0  0  0  0  0  0  0
  -84.2799   31.0354    0.6822 C   0  0  0  0  0  0  0  0  0  0  0  0
  -82.6991   31.7858    0.8990 Cl  0  0  0  0  0  0  0  0  0  0  0  0
  -84.5936   29.8148    1.2353 C   0  0  0  0  0  0  0  0  0  0  0  0
  -83.3966   28.9780    2.1934 Cl  0  0  0  0  0  0  0  0  0  0  0  0
  -86.2052   27.6336    1.6903 S   0  0  0  0  0  0  0  0  0  0  0  0
  -87.1300   27.8544    2.8890 O   0  0  0  0  0  0  0  0  0  0  0  0
  -84.9938   26.8859    2.0795 O   0  0  0  0  0  0  0  0  0  0  0  0
  -87.1285   26.8136    0.4109 C   0  0  0  0  0  0  0  0  0  0  0  0
  -88.5991   26.8744    0.6311 C   0  0  0  0  0  0  0  0  0  0  0  0
  -89.0787   25.4223    0.7875 C   0  0  0  0  0  0  0  0  0  0  0  0
  -90.2785   25.3903    1.6920 C   0  0  0  0  0  0  0  0  0  0  0  0
  -89.3454   25.2270    3.9183 C   0  0  0  0  0  0  0  0  0  0  0  0
  -90.1449   26.1207    2.9785 C   0  0  0  0  0  0  0  0  0  0  0  0
  -84.8521   32.9680   -0.7762 C   0  0  0  0  0  0  0  0  0  0  0  0
  -83.6968   33.2225   -0.9610 O   0  0  0  0  0  0  0  0  0  0  0  0
  -85.9739   33.8116   -1.1810 C   0  0  0  0  0  0  0  0  0  0  0  0
  -86.3789   33.8075   -2.6020 C   0  0  0  0  0  0  0  0  0  0  0  0
  -87.6679   34.1282   -3.0050 N   0  0  0  0  0  0  0  0  0  0  0  0
  -88.9294   33.5996   -2.7997 C   0  0  0  0  0  0  0  0  0  0  0  0
  -88.2016   33.3129   -4.1147 C   0  0  0  0  0  0  0  0  0  0  0  0
  -87.6680   31.9208   -4.2598 C   0  0  0  0  0  0  0  0  0  0  0  0
 16 17  1  0  0  0
 17 15  1  0  0  0
 15 14  1  0  0  0
 14 13  1  0  0  0
 13 12  1  0  0  0
 12  9  1  0  0  0
  9 10  2  0  0  0
  9 11  2  0  0  0
  9  1  1  0  0  0
  1  2  2  0  0  0
  2  3  1  0  0  0
  3  4  2  0  0  0
  4 18  1  0  0  0
 18 19  2  0  0  0
 18 20  1  0  0  0
 20 21  1  0  0  0
 21 22  1  0  0  0
 22 23  1  0  0  0
 23 24  1  0  0  0
 24 25  1  0  0  0
  4  5  1  0  0  0
  5  6  1  0  0  0
  5  7  2  0  0  0
  7  8  1  0  0  0
  7  1  1  0  0  0
 24 22  1  0  0  0
M  END
> <minimizedAffinity>
-6.77405

> <CNNscore>
0.9185345173

> <CNNaffinity>
7.4766492844

> <CNN_VS>
6.8675603867

> <CNNaffinity_variance>
0.2108041346

$$$$
[H]c1c([H])c(S(=O)(=O)C([H])([H])C([H])([H])C([H])([H])C([H])([H])C([H])([H])C([H])([H])[H])c(Cl)c(Cl)c1C(=O)C([H])([H])C([H])([H])N1C([H])([H])C1([H])C([H])([H])[H]


 25 26  0  0  0  0  0  0  0  0999 V2000
  -85.9787   30.0298    0.8838 C   0  0  0  0  0  0  0  0  0  0  0  0
  -87.0878   29.7186    0.1160 C   0  0  0  0  0  0  0  0  0  0  0  0
  -87.5611   30.5916   -0.8266 C   0  0  0  0  0  0  0  0  0  0  0  0
  -86.9652   31.7969   -1.0539 C   0  0  0  0  0  0  0  0  0  0  0  0
  -85.8427   32.1351   -0.2864 C   0  0  0  0  0  0  0  0  0  0  0  0
  -85.0703   33.6946   -0.5696 Cl  0  0  0  0  0  0  0  0  0  0  0  0
  -85.3800   31.2495    0.6602 C   0  0  0  0  0  0  0  0  0  0  0  0
  -83.9885   31.6792    1.6244 Cl  0  0  0  0  0  0  0  0  0  0  0  0
  -85.3462   28.8599    2.0206 S   0  0  0  0  0  0  0  0  0  0  0  0
  -85.5872   29.4453    3.4135 O   0  0  0  0  0  0  0  0  0  0  0  0
  -83.9135   28.5853    1.7961 O   0  0  0  0  0  0  0  0  0  0  0  0
  -86.3536   27.4060    1.8392 C   0  0  0  0  0  0  0  0  0  0  0  0
  -87.6261   27.4861    2.6068 C   0  0  0  0  0  0  0  0  0  0  0  0
  -88.5562   26.4086    2.0261 C   0  0  0  0  0  0  0  0  0  0  0  0
  -89.4588   27.0327    0.9993 C   0  0  0  0  0  0  0  0  0  0  0  0
  -90.9841   28.9054    1.1405 C   0  0  0  0  0  0  0  0  0  0  0  0
  -90.8097   27.4289    1.4732 C   0  0  0  0  0  0  0  0  0  0  0  0
  -87.3788   32.7030   -2.1591 C   0  0  0  0  0  0  0  0  0  0  0  0
  -86.6719   32.8534   -3.1137 O   0  0  0  0  0  0  0  0  0  0  0  0
  -88.6686   33.3584   -1.9566 C   0  0  0  0  0  0  0  0  0  0  0  0
  -89.8872   32.6742   -2.4362 C   0  0  0  0  0  0  0  0  0  0  0  0
  -89.9330   32.0126   -3.6555 N   0  0  0  0  0  0  0  0  0  0  0  0
  -90.9291   31.4996   -4.4664 C   0  0  0  0  0  0  0  0  0  0  0  0
  -90.1285   30.5512   -3.5717 C   0  0  0  0  0  0  0  0  0  0  0  0
  -90.8639   30.0262   -2.3770 C   0  0  0  0  0  0  0  0  0  0  0  0
 16 17  1  0  0  0
 17 15  1  0  0  0
 15 14  1  0  0  0
 14 13  1  0  0  0
 13 12  1  0  0  0
 12  9  1  0  0  0
  9 10  2  0  0  0
  9 11  2  0  0  0
  9  1  1  0  0  0
  1  2  2  0  0  0
  2  3  1  0  0  0
  3  4  2  0  0  0
  4 18  1  0  0  0
 18 19  2  0  0  0
 18 20  1  0  0  0
 20 21  1  0  0  0
 21 22  1  0  0  0
 22 23  1  0  0  0
 23 24  1  0  0  0
 24 25  1  0  0  0
  4  5  1  0  0  0
  5  6  1  0  0  0
  5  7  2  0  0  0
  7  8  1  0  0  0
  7  1  1  0  0  0
 24 22  1  0  0  0
M  END
> <minimizedAffinity>
-5.83213

> <CNNscore>
0.6662160754

> <CNNaffinity>
6.8223814964

> <CNN_VS>
4.5451803207

> <CNNaffinity_variance>
0.1085669547

$$$$
[H]c1c([H])c(S(=O)(=O)C([H])([H])C([H])([H])C([H])([H])C([H])([H])C([H])([H])C([H])([H])[H])c(Cl)c(Cl)c1C(=O)C([H])([H])C([H])([H])N1C([H])([H])C1([H])C([H])([H])[H]


 25 26  0  0  0  0  0  0  0  0999 V2000
  -85.5918   31.4027   -0.0900 C   0  0  0  0  0  0  0  0  0  0  0  0
  -86.3945   30.5291   -0.8034 C   0  0  0  0  0  0  0  0  0  0  0  0
  -86.7224   29.2996   -0.2981 C   0  0  0  0  0  0  0  0  0  0  0  0
  -86.2802   28.8826    0.9227 C   0  0  0  0  0  0  0  0  0  0  0  0
  -85.4635   29.7488    1.6616 C   0  0  0  0  0  0  0  0  0  0  0  0
  -84.8822   29.2145    3.2382 Cl  0  0  0  0  0  0  0  0  0  0  0  0
  -85.1389   30.9803    1.1399 C   0  0  0  0  0  0  0  0  0  0  0  0
  -84.1100   32.0527    2.0575 Cl  0  0  0  0  0  0  0  0  0  0  0  0
  -85.2593   32.9996   -0.7229 S   0  0  0  0  0  0  0  0  0  0  0  0
  -83.7486   33.0595   -0.9572 O   0  0  0  0  0  0  0  0  0  0  0  0
  -85.7008   34.0653    0.1977 O   0  0  0  0  0  0  0  0  0  0  0  0
  -86.0769   33.0817   -2.2998 C   0  0  0  0  0  0  0  0  0  0  0  0
  -87.4168   33.7248   -2.2225 C   0  0  0  0  0  0  0  0  0  0  0  0
  -88.3656   32.8631   -3.0712 C   0  0  0  0  0  0  0  0  0  0  0  0
  -89.5721   32.4990   -2.2523 C   0  0  0  0  0  0  0  0  0  0  0  0
  -89.8744   31.1039   -0.2989 C   0  0  0  0  0  0  0  0  0  0  0  0
  -89.3737   32.4597   -0.7808 C   0  0  0  0  0  0  0  0  0  0  0  0
  -86.7289   27.6098    1.5489 C   0  0  0  0  0  0  0  0  0  0  0  0
  -86.0463   26.6285    1.4789 O   0  0  0  0  0  0  0  0  0  0  0  0
  -88.0270   27.6850    2.2146 C   0  0  0  0  0  0  0  0  0  0  0  0
  -88.7189   26.4231    2.5496 C   0  0  0  0  0  0  0  0  0  0  0  0
  -89.4719   25.7222    1.6178 N   0  0  0  0  0  0  0  0  0  0  0  0
  -90.7962   25.7149    1.2192 C   0  0  0  0  0  0  0  0  0  0  0  0
  -90.2934   24.6257    2.1688 C   0  0  0  0  0  0  0  0  0  0  0  0
  -90.7469   24.7577    3.5903 C   0  0  0  0  0  0  0  0  0  0  0  0
 16 17  1  0  0  0
 17 15  1  0  0  0
 15 14  1  0  0  0
 14 13  1  0  0  0
 13 12  1  0  0  0
 12  9  1  0  0  0
  9 10  2  0  0  0
  9 11  2  0  0  0
  9  1  1  0  0  0
  1  2  2  0  0  0
  2  3  1  0  0  0
  3  4  2  0  0  0
  4 18  1  0  0  0
 18 19  2  0  0  0
 18 20  1  0  0  0
 20 21  1  0  0  0
 21 22  1  0  0  0
 22 23  1  0  0  0
 23 24  1  0  0  0
 24 25  1  0  0  0
  4  5  1  0  0  0
  5  6  1  0  0  0
  5  7  2  0  0  0
  7  8  1  0  0  0
  7  1  1  0  0  0
 24 22  1  0  0  0
M  END
> <minimizedAffinity>
-6.16204

> <CNNscore>
0.5074903369

> <CNNaffinity>
6.6096906662

> <CNN_VS>
3.3543541431

> <CNNaffinity_variance>
0.0886271000

$$$$
[H]c1c([H])c(S(=O)(=O)C([H])([H])C([H])([H])C([H])([H])C([H])([H])C([H])([H])C([H])([H])[H])c(Cl)c(Cl)c1C(=O)C([H])([H])C([H])([H])N1C([H])([H])C1([H])C([H])([H])[H]


 25 26  0  0  0  0  0  0  0  0999 V2000
  -86.3774   28.7992    1.0382 C   0  0  0  0  0  0  0  0  0  0  0  0
  -86.7530   29.2335   -0.2214 C   0  0  0  0  0  0  0  0  0  0  0  0
  -86.3704   30.4629   -0.6871 C   0  0  0  0  0  0  0  0  0  0  0  0
  -85.6049   31.3086    0.0602 C   0  0  0  0  0  0  0  0  0  0  0  0
  -85.2153   30.8917    1.3400 C   0  0  0  0  0  0  0  0  0  0  0  0
  -84.2310   31.9821    2.3152 Cl  0  0  0  0  0  0  0  0  0  0  0  0
  -85.6102   29.6549    1.7968 C   0  0  0  0  0  0  0  0  0  0  0  0
  -85.1341   29.1432    3.3974 Cl  0  0  0  0  0  0  0  0  0  0  0  0
  -86.8094   27.1904    1.5732 S   0  0  0  0  0  0  0  0  0  0  0  0
  -87.9657   27.3651    2.5598 O   0  0  0  0  0  0  0  0  0  0  0  0
  -85.6722   26.4892    2.2002 O   0  0  0  0  0  0  0  0  0  0  0  0
  -87.4207   26.3432    0.1343 C   0  0  0  0  0  0  0  0  0  0  0  0
  -88.9072   26.2962    0.0802 C   0  0  0  0  0  0  0  0  0  0  0  0
  -89.2844   24.8729   -0.3617 C   0  0  0  0  0  0  0  0  0  0  0  0
  -89.7197   24.8985   -1.8000 C   0  0  0  0  0  0  0  0  0  0  0  0
  -91.6772   25.7504   -2.9384 C   0  0  0  0  0  0  0  0  0  0  0  0
  -91.1582   24.6261   -2.0508 C   0  0  0  0  0  0  0  0  0  0  0  0
  -85.0675   32.5897   -0.4723 C   0  0  0  0  0  0  0  0  0  0  0  0
  -83.9221   32.6697   -0.8117 O   0  0  0  0  0  0  0  0  0  0  0  0
  -86.0378   33.6805   -0.5240 C   0  0  0  0  0  0  0  0  0  0  0  0
  -87.0881   33.6377   -1.5624 C   0  0  0  0  0  0  0  0  0  0  0  0
  -86.7916   33.6915   -2.9174 N   0  0  0  0  0  0  0  0  0  0  0  0
  -87.4616   34.0828   -4.0623 C   0  0  0  0  0  0  0  0  0  0  0  0
  -87.3544   32.5934   -3.7289 C   0  0  0  0  0  0  0  0  0  0  0  0
  -88.6173   31.9560   -3.2366 C   0  0  0  0  0  0  0  0  0  0  0  0
 16 17  1  0  0  0
 17 15  1  0  0  0
 15 14  1  0  0  0
 14 13  1  0  0  0
 13 12  1  0  0  0
 12  9  1  0  0  0
  9 10  2  0  0  0
  9 11  2  0  0  0
  9  1  1  0  0  0
  1  2  2  0  0  0
  2  3  1  0  0  0
  3  4  2  0  0  0
  4 18  1  0  0  0
 18 19  2  0  0  0
 18 20  1  0  0  0
 20 21  1  0  0  0
 21 22  1  0  0  0
 22 23  1  0  0  0
 23 24  1  0  0  0
 24 25  1  0  0  0
  4  5  1  0  0  0
  5  6  1  0  0  0
  5  7  2  0  0  0
  7  8  1  0  0  0
  7  1  1  0  0  0
 24 22  1  0  0  0
M  END
> <minimizedAffinity>
-6.15315

> <CNNscore>
0.4421907663

> <CNNaffinity>
6.6416993141

> <CNN_VS>
2.9368979931

> <CNNaffinity_variance>
0.1497804224

$$$$
[H]c1c([H])c(S(=O)(=O)C([H])([H])C([H])([H])C([H])([H])C([H])([H])C([H])([H])C([H])([H])[H])c(Cl)c(Cl)c1C(=O)C([H])([H])C([H])([H])N1C([H])([H])C1([H])C([H])([H])[H]


 25 26  0  0  0  0  0  0  0  0999 V2000
  -85.9914   28.4950    0.9139 C   0  0  0  0  0  0  0  0  0  0  0  0
  -85.8377   29.2757   -0.2190 C   0  0  0  0  0  0  0  0  0  0  0  0
  -86.7882   29.2843   -1.2044 C   0  0  0  0  0  0  0  0  0  0  0  0
  -87.9230   28.5333   -1.1154 C   0  0  0  0  0  0  0  0  0  0  0  0
  -88.0989   27.7325    0.0209 C   0  0  0  0  0  0  0  0  0  0  0  0
  -89.5604   26.7535    0.1405 Cl  0  0  0  0  0  0  0  0  0  0  0  0
  -87.1336   27.7309    1.0020 C   0  0  0  0  0  0  0  0  0  0  0  0
  -87.3493   26.7218    2.4112 Cl  0  0  0  0  0  0  0  0  0  0  0  0
  -84.8018   28.5690    2.1947 S   0  0  0  0  0  0  0  0  0  0  0  0
  -84.3560   27.1272    2.4464 O   0  0  0  0  0  0  0  0  0  0  0  0
  -85.3442   29.1835    3.4220 O   0  0  0  0  0  0  0  0  0  0  0  0
  -83.4239   29.4764    1.5318 C   0  0  0  0  0  0  0  0  0  0  0  0
  -83.5718   30.9486    1.6913 C   0  0  0  0  0  0  0  0  0  0  0  0
  -82.6637   31.5970    0.6340 C   0  0  0  0  0  0  0  0  0  0  0  0
  -83.4587   32.5971   -0.1575 C   0  0  0  0  0  0  0  0  0  0  0  0
  -85.5592   33.4039   -1.0467 C   0  0  0  0  0  0  0  0  0  0  0  0
  -84.9245   32.6018    0.0825 C   0  0  0  0  0  0  0  0  0  0  0  0
  -89.0285   28.6258   -2.1068 C   0  0  0  0  0  0  0  0  0  0  0  0
  -89.0694   27.8743   -3.0380 O   0  0  0  0  0  0  0  0  0  0  0  0
  -90.0000   29.6828   -1.8363 C   0  0  0  0  0  0  0  0  0  0  0  0
  -90.0465   30.8443   -2.7483 C   0  0  0  0  0  0  0  0  0  0  0  0
  -89.2414   31.9603   -2.5669 N   0  0  0  0  0  0  0  0  0  0  0  0
  -89.0168   33.1407   -3.2519 C   0  0  0  0  0  0  0  0  0  0  0  0
  -88.0151   31.9923   -3.3891 C   0  0  0  0  0  0  0  0  0  0  0  0
  -88.0499   31.2667   -4.6990 C   0  0  0  0  0  0  0  0  0  0  0  0
 16 17  1  0  0  0
 17 15  1  0  0  0
 15 14  1  0  0  0
 14 13  1  0  0  0
 13 12  1  0  0  0
 12  9  1  0  0  0
  9 10  2  0  0  0
  9 11  2  0  0  0
  9  1  1  0  0  0
  1  2  2  0  0  0
  2  3  1  0  0  0
  3  4  2  0  0  0
  4 18  1  0  0  0
 18 19  2  0  0  0
 18 20  1  0  0  0
 20 21  1  0  0  0
 21 22  1  0  0  0
 22 23  1  0  0  0
 23 24  1  0  0  0
 24 25  1  0  0  0
  4  5  1  0  0  0
  5  6  1  0  0  0
  5  7  2  0  0  0
  7  8  1  0  0  0
  7  1  1  0  0  0
 24 22  1  0  0  0
M  END
> <minimizedAffinity>
-7.12692

> <CNNscore>
0.4232959449

> <CNNaffinity>
6.6605100632

> <CNN_VS>
2.8193669319

> <CNNaffinity_variance>
0.1999132633

$$$$
[H]c1c([H])c(S(=O)(=O)C([H])([H])C([H])([H])C([H])([H])C([H])([H])C([H])([H])C([H])([H])[H])c(Cl)c(Cl)c1C(=O)C([H])([H])C([H])([H])N1C([H])([H])C1([H])C([H])([H])[H]


 25 26  0  0  0  0  0  0  0  0999 V2000
  -85.0331   29.6965    0.8219 C   0  0  0  0  0  0  0  0  0  0  0  0
  -85.3646   29.5773   -0.5169 C   0  0  0  0  0  0  0  0  0  0  0  0
  -86.4533   28.8472   -0.9121 C   0  0  0  0  0  0  0  0  0  0  0  0
  -87.2576   28.2114   -0.0129 C   0  0  0  0  0  0  0  0  0  0  0  0
  -86.9399   28.3152    1.3478 C   0  0  0  0  0  0  0  0  0  0  0  0
  -87.9711   27.4906    2.5164 Cl  0  0  0  0  0  0  0  0  0  0  0  0
  -85.8404   29.0493    1.7306 C   0  0  0  0  0  0  0  0  0  0  0  0
  -85.4393   29.1661    3.4265 Cl  0  0  0  0  0  0  0  0  0  0  0  0
  -83.6868   30.7049    1.3030 S   0  0  0  0  0  0  0  0  0  0  0  0
  -82.5983   29.7531    1.8031 O   0  0  0  0  0  0  0  0  0  0  0  0
  -84.0665   31.6787    2.3451 O   0  0  0  0  0  0  0  0  0  0  0  0
  -83.1077   31.4908   -0.1832 C   0  0  0  0  0  0  0  0  0  0  0  0
  -83.3459   32.9598   -0.1898 C   0  0  0  0  0  0  0  0  0  0  0  0
  -84.4416   33.2209   -1.2361 C   0  0  0  0  0  0  0  0  0  0  0  0
  -85.7804   33.2589   -0.5543 C   0  0  0  0  0  0  0  0  0  0  0  0
  -87.9681   32.2366   -0.7049 C   0  0  0  0  0  0  0  0  0  0  0  0
  -86.9663   33.1201   -1.4378 C   0  0  0  0  0  0  0  0  0  0  0  0
  -88.5174   27.5243   -0.4058 C   0  0  0  0  0  0  0  0  0  0  0  0
  -89.5752   28.0588   -0.2365 O   0  0  0  0  0  0  0  0  0  0  0  0
  -88.3299   26.1949   -0.9817 C   0  0  0  0  0  0  0  0  0  0  0  0
  -89.5262   25.3696   -1.2481 C   0  0  0  0  0  0  0  0  0  0  0  0
  -89.9367   24.3618   -0.3865 N   0  0  0  0  0  0  0  0  0  0  0  0
  -89.8162   22.9846   -0.3456 C   0  0  0  0  0  0  0  0  0  0  0  0
  -91.1295   23.6080   -0.8223 C   0  0  0  0  0  0  0  0  0  0  0  0
  -91.3819   23.5182   -2.2961 C   0  0  0  0  0  0  0  0  0  0  0  0
 16 17  1  0  0  0
 17 15  1  0  0  0
 15 14  1  0  0  0
 14 13  1  0  0  0
 13 12  1  0  0  0
 12  9  1  0  0  0
  9 10  2  0  0  0
  9 11  2  0  0  0
  9  1  1  0  0  0
  1  2  2  0  0  0
  2  3  1  0  0  0
  3  4  2  0  0  0
  4 18  1  0  0  0
 18 19  2  0  0  0
 18 20  1  0  0  0
 20 21  1  0  0  0
 21 22  1  0  0  0
 22 23  1  0  0  0
 23 24  1  0  0  0
 24 25  1  0  0  0
  4  5  1  0  0  0
  5  6  1  0  0  0
  5  7  2  0  0  0
  7  8  1  0  0  0
  7  1  1  0  0  0
 24 22  1  0  0  0
M  END
> <minimizedAffinity>
-6.72959

> <CNNscore>
0.3173572719

> <CNNaffinity>
6.2982530594

> <CNN_VS>
1.9987964630

> <CNNaffinity_variance>
0.2951182723

$$$$
[H]c1c([H])c(S(=O)(=O)C([H])([H])C([H])([H])C([H])([H])C([H])([H])C([H])([H])C([H])([H])[H])c(Cl)c(Cl)c1C(=O)C([H])([H])C([H])([H])N1C([H])([H])C1([H])C([H])([H])[H]


 25 26  0  0  0  0  0  0  0  0999 V2000
  -87.0178   28.6517    0.3522 C   0  0  0  0  0  0  0  0  0  0  0  0
  -86.5182   29.8724   -0.0680 C   0  0  0  0  0  0  0  0  0  0  0  0
  -86.9301   30.4358   -1.2460 C   0  0  0  0  0  0  0  0  0  0  0  0
  -87.8467   29.8277   -2.0521 C   0  0  0  0  0  0  0  0  0  0  0  0
  -88.3641   28.5895   -1.6488 C   0  0  0  0  0  0  0  0  0  0  0  0
  -89.5448   27.7936   -2.6887 Cl  0  0  0  0  0  0  0  0  0  0  0  0
  -87.9383   28.0332   -0.4641 C   0  0  0  0  0  0  0  0  0  0  0  0
  -88.5752   26.4836    0.0297 Cl  0  0  0  0  0  0  0  0  0  0  0  0
  -86.5372   27.9969    1.9018 S   0  0  0  0  0  0  0  0  0  0  0  0
  -85.8913   26.6410    1.6101 O   0  0  0  0  0  0  0  0  0  0  0  0
  -87.6803   27.8577    2.8249 O   0  0  0  0  0  0  0  0  0  0  0  0
  -85.2857   29.0928    2.5299 C   0  0  0  0  0  0  0  0  0  0  0  0
  -83.9919   28.4040    2.7877 C   0  0  0  0  0  0  0  0  0  0  0  0
  -82.9237   29.1643    1.9850 C   0  0  0  0  0  0  0  0  0  0  0  0
  -83.4419   30.5322    1.6399 C   0  0  0  0  0  0  0  0  0  0  0  0
  -83.5821   32.2751   -0.0323 C   0  0  0  0  0  0  0  0  0  0  0  0
  -82.6330   31.3094    0.6663 C   0  0  0  0  0  0  0  0  0  0  0  0
  -88.4070   30.4788   -3.2668 C   0  0  0  0  0  0  0  0  0  0  0  0
  -87.9220   30.2715   -4.3417 O   0  0  0  0  0  0  0  0  0  0  0  0
  -89.5467   31.3570   -3.0141 C   0  0  0  0  0  0  0  0  0  0  0  0
  -89.2816   32.7532   -2.6098 C   0  0  0  0  0  0  0  0  0  0  0  0
  -88.9652   33.7428   -3.5303 N   0  0  0  0  0  0  0  0  0  0  0  0
  -88.0320   33.8936   -4.5399 C   0  0  0  0  0  0  0  0  0  0  0  0
  -87.7892   34.5680   -3.1881 C   0  0  0  0  0  0  0  0  0  0  0  0
  -86.7316   33.9337   -2.3380 C   0  0  0  0  0  0  0  0  0  0  0  0
 16 17  1  0  0  0
 17 15  1  0  0  0
 15 14  1  0  0  0
 14 13  1  0  0  0
 13 12  1  0  0  0
 12  9  1  0  0  0
  9 10  2  0  0  0
  9 11  2  0  0  0
  9  1  1  0  0  0
  1  2  2  0  0  0
  2  3  1  0  0  0
  3  4  2  0  0  0
  4 18  1  0  0  0
 18 19  2  0  0  0
 18 20  1  0  0  0
 20 21  1  0  0  0
 21 22  1  0  0  0
 22 23  1  0  0  0
 23 24  1  0  0  0
 24 25  1  0  0  0
  4  5  1  0  0  0
  5  6  1  0  0  0
  5  7  2  0  0  0
  7  8  1  0  0  0
  7  1  1  0  0  0
 24 22  1  0  0  0
M  END
> <minimizedAffinity>
-7.10572

> <CNNscore>
0.2089664638

> <CNNaffinity>
6.2444090843

> <CNN_VS>
1.3048720360

> <CNNaffinity_variance>
0.3150189519

$$$$
[H]c1c([H])c(S(=O)(=O)C([H])([H])C([H])([H])C([H])([H])C([H])([H])C([H])([H])C([H])([H])[H])c(Cl)c(Cl)c1C(=O)C([H])([H])C([H])([H])N1C([H])([H])C1([H])C([H])([H])[H]


 25 26  0  0  0  0  0  0  0  0999 V2000
  -88.1327   28.9071   -1.1884 C   0  0  0  0  0  0  0  0  0  0  0  0
  -86.7704   29.1071   -1.3318 C   0  0  0  0  0  0  0  0  0  0  0  0
  -85.9055   28.8367   -0.3054 C   0  0  0  0  0  0  0  0  0  0  0  0
  -86.3413   28.3583    0.8950 C   0  0  0  0  0  0  0  0  0  0  0  0
  -87.7167   28.1510    1.0646 C   0  0  0  0  0  0  0  0  0  0  0  0
  -88.2889   27.5390    2.6159 Cl  0  0  0  0  0  0  0  0  0  0  0  0
  -88.5750   28.4306    0.0256 C   0  0  0  0  0  0  0  0  0  0  0  0
  -90.2902   28.1837    0.2441 Cl  0  0  0  0  0  0  0  0  0  0  0  0
  -89.2040   29.1806   -2.5442 S   0  0  0  0  0  0  0  0  0  0  0  0
  -89.9258   27.8545   -2.7917 O   0  0  0  0  0  0  0  0  0  0  0  0
  -88.4749   29.6259   -3.7476 O   0  0  0  0  0  0  0  0  0  0  0  0
  -90.3982   30.3766   -1.9915 C   0  0  0  0  0  0  0  0  0  0  0  0
  -89.9053   31.7766   -2.0991 C   0  0  0  0  0  0  0  0  0  0  0  0
  -89.3820   32.1647   -0.7067 C   0  0  0  0  0  0  0  0  0  0  0  0
  -88.0353   32.8170   -0.8463 C   0  0  0  0  0  0  0  0  0  0  0  0
  -86.7305   33.9489   -2.5404 C   0  0  0  0  0  0  0  0  0  0  0  0
  -87.3424   32.6111   -2.1439 C   0  0  0  0  0  0  0  0  0  0  0  0
  -85.4123   27.9331    1.9766 C   0  0  0  0  0  0  0  0  0  0  0  0
  -85.1011   26.7824    2.0879 O   0  0  0  0  0  0  0  0  0  0  0  0
  -84.9545   29.0156    2.8442 C   0  0  0  0  0  0  0  0  0  0  0  0
  -83.9592   29.9692    2.3120 C   0  0  0  0  0  0  0  0  0  0  0  0
  -84.2707   31.2971    2.0547 N   0  0  0  0  0  0  0  0  0  0  0  0
  -84.8957   31.9869    1.0317 C   0  0  0  0  0  0  0  0  0  0  0  0
  -83.3676   31.9837    1.1092 C   0  0  0  0  0  0  0  0  0  0  0  0
  -82.6773   31.1371    0.0843 C   0  0  0  0  0  0  0  0  0  0  0  0
 16 17  1  0  0  0
 17 15  1  0  0  0
 15 14  1  0  0  0
 14 13  1  0  0  0
 13 12  1  0  0  0
 12  9  1  0  0  0
  9 10  2  0  0  0
  9 11  2  0  0  0
  9  1  1  0  0  0
  1  2  2  0  0  0
  2  3  1  0  0  0
  3  4  2  0  0  0
  4 18  1  0  0  0
 18 19  2  0  0  0
 18 20  1  0  0  0
 20 21  1  0  0  0
 21 22  1  0  0  0
 22 23  1  0  0  0
 23 24  1  0  0  0
 24 25  1  0  0  0
  4  5  1  0  0  0
  5  6  1  0  0  0
  5  7  2  0  0  0
  7  8  1  0  0  0
  7  1  1  0  0  0
 24 22  1  0  0  0
M  END
> <minimizedAffinity>
-7.02987

> <CNNscore>
0.1885271072

> <CNNaffinity>
6.3523278236

> <CNN_VS>
1.1975859404

> <CNNaffinity_variance>
0.3675432801

$$$$
[H]c1c([H])c(S(=O)(=O)C([H])([H])C([H])([H])C([H])([H])C([H])([H])C([H])([H])C([H])([H])[H])c(Cl)c(Cl)c1C(=O)C([H])([H])C([H])([H])N1C([H])([H])C1([H])C([H])([H])[H]


 25 26  0  0  0  0  0  0  0  0999 V2000
  -85.0332   29.7234    0.8196 C   0  0  0  0  0  0  0  0  0  0  0  0
  -85.3643   29.6142   -0.5201 C   0  0  0  0  0  0  0  0  0  0  0  0
  -86.4722   28.9153   -0.9186 C   0  0  0  0  0  0  0  0  0  0  0  0
  -87.2965   28.3021   -0.0219 C   0  0  0  0  0  0  0  0  0  0  0  0
  -86.9796   28.3962    1.3398 C   0  0  0  0  0  0  0  0  0  0  0  0
  -88.0368   27.6005    2.5052 Cl  0  0  0  0  0  0  0  0  0  0  0  0
  -85.8609   29.0989    1.7258 C   0  0  0  0  0  0  0  0  0  0  0  0
  -85.4611   29.2035    3.4229 Cl  0  0  0  0  0  0  0  0  0  0  0  0
  -83.6603   30.6932    1.3048 S   0  0  0  0  0  0  0  0  0  0  0  0
  -82.5982   29.7104    1.8018 O   0  0  0  0  0  0  0  0  0  0  0  0
  -84.0138   31.6731    2.3503 O   0  0  0  0  0  0  0  0  0  0  0  0
  -83.0594   31.4685   -0.1784 C   0  0  0  0  0  0  0  0  0  0  0  0
  -83.2743   32.9411   -0.1876 C   0  0  0  0  0  0  0  0  0  0  0  0
  -84.3757   33.2163   -1.2241 C   0  0  0  0  0  0  0  0  0  0  0  0
  -85.6990   33.3382   -0.5222 C   0  0  0  0  0  0  0  0  0  0  0  0
  -87.8954   32.3407   -0.7077 C   0  0  0  0  0  0  0  0  0  0  0  0
  -86.9044   33.2770   -1.3879 C   0  0  0  0  0  0  0  0  0  0  0  0
  -88.5741   27.6509   -0.4185 C   0  0  0  0  0  0  0  0  0  0  0  0
  -88.6036   26.4803   -0.6680 O   0  0  0  0  0  0  0  0  0  0  0  0
  -89.7230   28.5516   -0.4743 C   0  0  0  0  0  0  0  0  0  0  0  0
  -90.8854   28.1572   -1.2967 C   0  0  0  0  0  0  0  0  0  0  0  0
  -90.9380   28.3910   -2.6639 N   0  0  0  0  0  0  0  0  0  0  0  0
  -91.7251   29.1531   -3.5080 C   0  0  0  0  0  0  0  0  0  0  0  0
  -91.9905   27.6510   -3.3890 C   0  0  0  0  0  0  0  0  0  0  0  0
  -93.2198   27.2781   -2.6187 C   0  0  0  0  0  0  0  0  0  0  0  0
 16 17  1  0  0  0
 17 15  1  0  0  0
 15 14  1  0  0  0
 14 13  1  0  0  0
 13 12  1  0  0  0
 12  9  1  0  0  0
  9 10  2  0  0  0
  9 11  2  0  0  0
  9  1  1  0  0  0
  1  2  2  0  0  0
  2  3  1  0  0  0
  3  4  2  0  0  0
  4 18  1  0  0  0
 18 19  2  0  0  0
 18 20  1  0  0  0
 20 21  1  0  0  0
 21 22  1  0  0  0
 22 23  1  0  0  0
 23 24  1  0  0  0
 24 25  1  0  0  0
  4  5  1  0  0  0
  5  6  1  0  0  0
  5  7  2  0  0  0
  7  8  1  0  0  0
  7  1  1  0  0  0
 24 22  1  0  0  0
M  END
> <minimizedAffinity>
-6.45397

> <CNNscore>
0.1700190604

> <CNNaffinity>
6.0791482925

> <CNN_VS>
1.0335711241

> <CNNaffinity_variance>
0.2534260750

$$$$
[H]OC([H])([H])C([H])([H])N1C([H])([H])C([H])([H])N(c2c(Cl)c([H])c3nc(SC(C([H])([H])[H])(C([H])([H])[H])C([H])([H])[H])n([H])c3c2[H])[C@]([H])(C([H])([H])[H])C1([H])[H]


 27 29  0  0  0  0  0  0  0  0999 V2000
  -87.2946   31.9109   -1.3318 C   0  0  0  0  0  0  0  0  0  0  0  0
  -86.5536   32.7669   -2.1650 C   0  0  0  0  0  0  0  0  0  0  0  0
  -87.1257   33.8260   -2.8274 C   0  0  0  0  0  0  0  0  0  0  0  0
  -86.5995   34.7462   -3.6563 N   0  0  0  0  0  0  0  0  0  0  0  0
  -87.6152   35.5511   -4.0155 C   0  0  0  0  0  0  0  0  0  0  0  0
  -88.7498   35.1429   -3.4246 N   0  0  0  0  0  0  0  0  0  0  0  0
  -88.4970   34.0656   -2.6695 C   0  0  0  0  0  0  0  0  0  0  0  0
  -89.2386   33.2350   -1.8555 C   0  0  0  0  0  0  0  0  0  0  0  0
  -88.6432   32.1660   -1.1921 C   0  0  0  0  0  0  0  0  0  0  0  0
  -89.6831   31.1583   -0.2027 Cl  0  0  0  0  0  0  0  0  0  0  0  0
  -85.5937   34.7885   -3.9376 H   0  0  0  0  0  0  0  0  0  0  0  0
  -87.5698   28.8563   -1.7971 C   0  0  0  0  0  0  0  0  0  0  0  0
  -86.4985   29.5034   -1.0321 C   0  0  0  0  0  0  0  0  0  0  0  0
  -86.4015   28.7087    0.2769 C   0  0  0  0  0  0  0  0  0  0  0  0
  -85.0625   28.8318    0.7704 N   0  0  0  0  0  0  0  0  0  0  0  0
  -84.6860   30.1934    0.6995 C   0  0  0  0  0  0  0  0  0  0  0  0
  -85.9155   31.1303    0.5651 C   0  0  0  0  0  0  0  0  0  0  0  0
  -86.6349   30.8732   -0.6631 N   0  0  0  0  0  0  0  0  0  0  0  0
  -84.9914   28.1943    2.0427 C   0  0  0  0  0  0  0  0  0  0  0  0
  -83.6758   28.2492    2.7390 C   0  0  0  0  0  0  0  0  0  0  0  0
  -83.3449   26.9351    3.1254 O   0  0  0  0  0  0  0  0  0  0  0  0
  -83.9331   26.2664    2.7109 H   0  0  0  0  0  0  0  0  0  0  0  0
  -87.4399   36.9430   -5.1152 S   0  0  0  0  0  0  0  0  0  0  0  0
  -88.1827   38.3840   -4.2824 C   0  0  0  0  0  0  0  0  0  0  0  0
  -87.7547   39.6154   -5.0398 C   0  0  0  0  0  0  0  0  0  0  0  0
  -89.6915   38.2852   -4.3962 C   0  0  0  0  0  0  0  0  0  0  0  0
  -87.7244   38.3738   -2.8560 C   0  0  0  0  0  0  0  0  0  0  0  0
 12 13  1  0  0  0
 13 14  1  0  0  0
 14 15  1  0  0  0
 15 19  1  0  0  0
 19 20  1  0  0  0
 20 21  1  0  0  0
 15 16  1  0  0  0
 16 17  1  0  0  0
 17 18  1  0  0  0
 18  1  1  0  0  0
  1  2  2  0  0  0
  2  3  1  0  0  0
  3  4  1  0  0  0
  4  5  1  0  0  0
  5 23  1  0  0  0
 23 24  1  0  0  0
 24 25  1  0  0  0
 24 26  1  0  0  0
 24 27  1  0  0  0
  5  6  2  0  0  0
  6  7  1  0  0  0
  7  8  1  0  0  0
  8  9  2  0  0  0
  9 10  1  0  0  0
 18 13  1  0  0  0
  9  1  1  0  0  0
  7  3  2  0  0  0
 21 22  1  0  0  0
  4 11  1  0  0  0
M  END
> <minimizedAffinity>
-7.43899

> <CNNscore>
0.3196089566

> <CNNaffinity>
6.4272284508

> <CNN_VS>
2.0541996956

> <CNNaffinity_variance>
0.1016646400

$$$$
[H]OC([H])([H])C([H])([H])N1C([H])([H])C([H])([H])N(c2c(Cl)c([H])c3nc(SC(C([H])([H])[H])(C([H])([H])[H])C([H])([H])[H])n([H])c3c2[H])[C@]([H])(C([H])([H])[H])C1([H])[H]


 27 29  0  0  0  0  0  0  0  0999 V2000
  -89.4944   32.2475   -2.9100 C   0  0  0  0  0  0  0  0  0  0  0  0
  -89.0275   31.0027   -2.4535 C   0  0  0  0  0  0  0  0  0  0  0  0
  -87.9583   30.8860   -1.5985 C   0  0  0  0  0  0  0  0  0  0  0  0
  -87.3671   29.8062   -1.0551 N   0  0  0  0  0  0  0  0  0  0  0  0
  -86.3632   30.2733   -0.2920 C   0  0  0  0  0  0  0  0  0  0  0  0
  -86.3280   31.6140   -0.3573 N   0  0  0  0  0  0  0  0  0  0  0  0
  -87.3068   32.0473   -1.1628 C   0  0  0  0  0  0  0  0  0  0  0  0
  -87.7522   33.2768   -1.6014 C   0  0  0  0  0  0  0  0  0  0  0  0
  -88.8367   33.3770   -2.4680 C   0  0  0  0  0  0  0  0  0  0  0  0
  -89.3039   34.9870   -2.9832 Cl  0  0  0  0  0  0  0  0  0  0  0  0
  -87.6639   28.8179   -1.2216 H   0  0  0  0  0  0  0  0  0  0  0  0
  -92.1538   30.6740   -2.6387 C   0  0  0  0  0  0  0  0  0  0  0  0
  -91.9395   31.8301   -3.5156 C   0  0  0  0  0  0  0  0  0  0  0  0
  -92.5047   31.4117   -4.8793 C   0  0  0  0  0  0  0  0  0  0  0  0
  -92.9110   32.5978   -5.5721 N   0  0  0  0  0  0  0  0  0  0  0  0
  -91.8752   33.5546   -5.4602 C   0  0  0  0  0  0  0  0  0  0  0  0
  -90.5246   32.9052   -5.0584 C   0  0  0  0  0  0  0  0  0  0  0  0
  -90.6109   32.2881   -3.7530 N   0  0  0  0  0  0  0  0  0  0  0  0
  -93.3304   32.2318   -6.8836 C   0  0  0  0  0  0  0  0  0  0  0  0
  -94.7537   32.5071   -7.2254 C   0  0  0  0  0  0  0  0  0  0  0  0
  -95.1454   31.5680   -8.2003 O   0  0  0  0  0  0  0  0  0  0  0  0
  -94.4867   30.8474   -8.3082 H   0  0  0  0  0  0  0  0  0  0  0  0
  -85.2643   29.2336    0.6511 S   0  0  0  0  0  0  0  0  0  0  0  0
  -83.9570   30.3073    1.3292 C   0  0  0  0  0  0  0  0  0  0  0  0
  -82.9118   29.4135    1.9471 C   0  0  0  0  0  0  0  0  0  0  0  0
  -83.2968   31.0497    0.1836 C   0  0  0  0  0  0  0  0  0  0  0  0
  -84.5963   31.2416    2.3105 C   0  0  0  0  0  0  0  0  0  0  0  0
 12 13  1  0  0  0
 13 14  1  0  0  0
 14 15  1  0  0  0
 15 19  1  0  0  0
 19 20  1  0  0  0
 20 21  1  0  0  0
 15 16  1  0  0  0
 16 17  1  0  0  0
 17 18  1  0  0  0
 18  1  1  0  0  0
  1  2  2  0  0  0
  2  3  1  0  0  0
  3  4  1  0  0  0
  4  5  1  0  0  0
  5 23  1  0  0  0
 23 24  1  0  0  0
 24 25  1  0  0  0
 24 26  1  0  0  0
 24 27  1  0  0  0
  5  6  2  0  0  0
  6  7  1  0  0  0
  7  8  1  0  0  0
  8  9  2  0  0  0
  9 10  1  0  0  0
 18 13  1  0  0  0
  9  1  1  0  0  0
  7  3  2  0  0  0
 21 22  1  0  0  0
  4 11  1  0  0  0
M  END
> <minimizedAffinity>
-6.67195

> <CNNscore>
0.1990558505

> <CNNaffinity>
5.8569045067

> <CNN_VS>
1.1658511162

> <CNNaffinity_variance>
0.0410853401

$$$$
[H]OC([H])([H])C([H])([H])N1C([H])([H])C([H])([H])N(c2c(Cl)c([H])c3nc(SC(C([H])([H])[H])(C([H])([H])[H])C([H])([H])[H])n([H])c3c2[H])[C@]([H])(C([H])([H])[H])C1([H])[H]


 27 29  0  0  0  0  0  0  0  0999 V2000
  -88.7149   31.7327   -2.2559 C   0  0  0  0  0  0  0  0  0  0  0  0
  -87.9973   30.6388   -1.7417 C   0  0  0  0  0  0  0  0  0  0  0  0
  -86.8750   30.7945   -0.9645 C   0  0  0  0  0  0  0  0  0  0  0  0
  -86.0609   29.8924   -0.3863 N   0  0  0  0  0  0  0  0  0  0  0  0
  -85.1169   30.5999    0.2595 C   0  0  0  0  0  0  0  0  0  0  0  0
  -85.3363   31.9135    0.0884 N   0  0  0  0  0  0  0  0  0  0  0  0
  -86.4259   32.0887   -0.6710 C   0  0  0  0  0  0  0  0  0  0  0  0
  -87.1186   33.1730   -1.1678 C   0  0  0  0  0  0  0  0  0  0  0  0
  -88.2535   32.9974   -1.9541 C   0  0  0  0  0  0  0  0  0  0  0  0
  -89.0431   34.4436   -2.5548 Cl  0  0  0  0  0  0  0  0  0  0  0  0
  -86.1778   28.8559   -0.4528 H   0  0  0  0  0  0  0  0  0  0  0  0
  -89.1884   32.3301   -5.2628 C   0  0  0  0  0  0  0  0  0  0  0  0
  -90.0323   31.4691   -4.4272 C   0  0  0  0  0  0  0  0  0  0  0  0
  -91.4713   31.9222   -4.7064 C   0  0  0  0  0  0  0  0  0  0  0  0
  -92.3397   30.8084   -4.4671 N   0  0  0  0  0  0  0  0  0  0  0  0
  -91.9740   30.2164   -3.2356 C   0  0  0  0  0  0  0  0  0  0  0  0
  -91.1200   31.1726   -2.3617 C   0  0  0  0  0  0  0  0  0  0  0  0
  -89.8687   31.4950   -3.0117 N   0  0  0  0  0  0  0  0  0  0  0  0
  -93.6870   31.2488   -4.6116 C   0  0  0  0  0  0  0  0  0  0  0  0
  -93.9197   32.7161   -4.5051 C   0  0  0  0  0  0  0  0  0  0  0  0
  -94.4100   32.9752   -3.2096 O   0  0  0  0  0  0  0  0  0  0  0  0
  -94.3231   32.1969   -2.6167 H   0  0  0  0  0  0  0  0  0  0  0  0
  -83.7881   29.8648    1.1932 S   0  0  0  0  0  0  0  0  0  0  0  0
  -84.5408   28.6968    2.3726 C   0  0  0  0  0  0  0  0  0  0  0  0
  -85.4795   27.8094    1.5950 C   0  0  0  0  0  0  0  0  0  0  0  0
  -83.4492   27.8112    2.9413 C   0  0  0  0  0  0  0  0  0  0  0  0
  -85.2253   29.4992    3.4366 C   0  0  0  0  0  0  0  0  0  0  0  0
 12 13  1  0  0  0
 13 14  1  0  0  0
 14 15  1  0  0  0
 15 19  1  0  0  0
 19 20  1  0  0  0
 20 21  1  0  0  0
 15 16  1  0  0  0
 16 17  1  0  0  0
 17 18  1  0  0  0
 18  1  1  0  0  0
  1  2  2  0  0  0
  2  3  1  0  0  0
  3  4  1  0  0  0
  4  5  1  0  0  0
  5 23  1  0  0  0
 23 24  1  0  0  0
 24 25  1  0  0  0
 24 26  1  0  0  0
 24 27  1  0  0  0
  5  6  2  0  0  0
  6  7  1  0  0  0
  7  8  1  0  0  0
  8  9  2  0  0  0
  9 10  1  0  0  0
 18 13  1  0  0  0
  9  1  1  0  0  0
  7  3  2  0  0  0
 21 22  1  0  0  0
  4 11  1  0  0  0
M  END
> <minimizedAffinity>
-6.66625

> <CNNscore>
0.1314556301

> <CNNaffinity>
5.8180503845

> <CNN_VS>
0.7648154497

> <CNNaffinity_variance>
0.0694467574

$$$$
[H]OC([H])([H])C([H])([H])N1C([H])([H])C([H])([H])N(c2c(Cl)c([H])c3nc(SC(C([H])([H])[H])(C([H])([H])[H])C([H])([H])[H])n([H])c3c2[H])[C@]([H])(C([H])([H])[H])C1([H])[H]


 27 29  0  0  0  0  0  0  0  0999 V2000
  -87.9009   28.0872    0.5623 C   0  0  0  0  0  0  0  0  0  0  0  0
  -88.4044   29.1987   -0.1357 C   0  0  0  0  0  0  0  0  0  0  0  0
  -87.6464   30.3175   -0.3833 C   0  0  0  0  0  0  0  0  0  0  0  0
  -87.9370   31.4659   -1.0218 N   0  0  0  0  0  0  0  0  0  0  0  0
  -86.8219   32.2157   -0.9698 C   0  0  0  0  0  0  0  0  0  0  0  0
  -85.8569   31.5510   -0.3140 N   0  0  0  0  0  0  0  0  0  0  0  0
  -86.3228   30.3564    0.0742 C   0  0  0  0  0  0  0  0  0  0  0  0
  -85.8132   29.2742    0.7608 C   0  0  0  0  0  0  0  0  0  0  0  0
  -86.5951   28.1487    1.0037 C   0  0  0  0  0  0  0  0  0  0  0  0
  -85.8561   26.8402    1.9078 Cl  0  0  0  0  0  0  0  0  0  0  0  0
  -88.8611   31.6878   -1.4570 H   0  0  0  0  0  0  0  0  0  0  0  0
  -89.4868   27.2769    3.1021 C   0  0  0  0  0  0  0  0  0  0  0  0
  -89.6906   26.7169    1.7618 C   0  0  0  0  0  0  0  0  0  0  0  0
  -89.7236   25.1960    1.9614 C   0  0  0  0  0  0  0  0  0  0  0  0
  -90.5091   24.6287    0.9064 N   0  0  0  0  0  0  0  0  0  0  0  0
  -90.0958   25.2078   -0.3161 C   0  0  0  0  0  0  0  0  0  0  0  0
  -88.7004   25.8762   -0.2005 C   0  0  0  0  0  0  0  0  0  0  0  0
  -88.7231   26.9695    0.7463 N   0  0  0  0  0  0  0  0  0  0  0  0
  -90.4514   23.2093    1.0154 C   0  0  0  0  0  0  0  0  0  0  0  0
  -90.0778   22.4643   -0.2190 C   0  0  0  0  0  0  0  0  0  0  0  0
  -88.7577   22.0005   -0.0517 O   0  0  0  0  0  0  0  0  0  0  0  0
  -88.4427   22.1012    0.8732 H   0  0  0  0  0  0  0  0  0  0  0  0
  -86.6856   33.8455   -1.6790 S   0  0  0  0  0  0  0  0  0  0  0  0
  -87.6493   33.8418   -3.2260 C   0  0  0  0  0  0  0  0  0  0  0  0
  -89.0918   34.0861   -2.8617 C   0  0  0  0  0  0  0  0  0  0  0  0
  -87.1958   35.0081   -4.0824 C   0  0  0  0  0  0  0  0  0  0  0  0
  -87.4216   32.5249   -3.9030 C   0  0  0  0  0  0  0  0  0  0  0  0
 12 13  1  0  0  0
 13 14  1  0  0  0
 14 15  1  0  0  0
 15 19  1  0  0  0
 19 20  1  0  0  0
 20 21  1  0  0  0
 15 16  1  0  0  0
 16 17  1  0  0  0
 17 18  1  0  0  0
 18  1  1  0  0  0
  1  2  2  0  0  0
  2  3  1  0  0  0
  3  4  1  0  0  0
  4  5  1  0  0  0
  5 23  1  0  0  0
 23 24  1  0  0  0
 24 25  1  0  0  0
 24 26  1  0  0  0
 24 27  1  0  0  0
  5  6  2  0  0  0
  6  7  1  0  0  0
  7  8  1  0  0  0
  8  9  2  0  0  0
  9 10  1  0  0  0
 18 13  1  0  0  0
  9  1  1  0  0  0
  7  3  2  0  0  0
 21 22  1  0  0  0
  4 11  1  0  0  0
M  END
> <minimizedAffinity>
-7.36827

> <CNNscore>
0.1293815523

> <CNNaffinity>
6.0306725502

> <CNN_VS>
0.7802577615

> <CNNaffinity_variance>
0.1386465579

$$$$
[H]OC([H])([H])C([H])([H])N1C([H])([H])C([H])([H])N(c2c(Cl)c([H])c3nc(SC(C([H])([H])[H])(C([H])([H])[H])C([H])([H])[H])n([H])c3c2[H])[C@]([H])(C([H])([H])[H])C1([H])[H]


 27 29  0  0  0  0  0  0  0  0999 V2000
  -87.5497   31.1556   -1.6931 C   0  0  0  0  0  0  0  0  0  0  0  0
  -88.0810   31.5862   -2.9212 C   0  0  0  0  0  0  0  0  0  0  0  0
  -87.8156   32.8294   -3.4426 C   0  0  0  0  0  0  0  0  0  0  0  0
  -88.2193   33.4213   -4.5817 N   0  0  0  0  0  0  0  0  0  0  0  0
  -87.6573   34.6430   -4.5883 C   0  0  0  0  0  0  0  0  0  0  0  0
  -86.9195   34.8103   -3.4789 N   0  0  0  0  0  0  0  0  0  0  0  0
  -86.9856   33.7029   -2.7279 C   0  0  0  0  0  0  0  0  0  0  0  0
  -86.4561   33.2960   -1.5211 C   0  0  0  0  0  0  0  0  0  0  0  0
  -86.7356   32.0331   -1.0070 C   0  0  0  0  0  0  0  0  0  0  0  0
  -86.0312   31.6274    0.5470 Cl  0  0  0  0  0  0  0  0  0  0  0  0
  -88.8465   32.9802   -5.2921 H   0  0  0  0  0  0  0  0  0  0  0  0
  -89.9637   30.2176    0.0144 C   0  0  0  0  0  0  0  0  0  0  0  0
  -89.0578   29.3349   -0.7284 C   0  0  0  0  0  0  0  0  0  0  0  0
  -88.6695   28.2298    0.2627 C   0  0  0  0  0  0  0  0  0  0  0  0
  -88.3424   27.0559   -0.4902 N   0  0  0  0  0  0  0  0  0  0  0  0
  -87.4884   27.4331   -1.5528 C   0  0  0  0  0  0  0  0  0  0  0  0
  -86.8365   28.8201   -1.3105 C   0  0  0  0  0  0  0  0  0  0  0  0
  -87.8377   29.8619   -1.2431 N   0  0  0  0  0  0  0  0  0  0  0  0
  -87.8703   26.0595    0.4121 C   0  0  0  0  0  0  0  0  0  0  0  0
  -87.4508   26.5319    1.7609 C   0  0  0  0  0  0  0  0  0  0  0  0
  -88.1229   25.7424    2.7152 O   0  0  0  0  0  0  0  0  0  0  0  0
  -88.5618   24.9626    2.3100 H   0  0  0  0  0  0  0  0  0  0  0  0
  -87.8829   35.8342   -5.8951 S   0  0  0  0  0  0  0  0  0  0  0  0
  -89.5663   36.5109   -5.7220 C   0  0  0  0  0  0  0  0  0  0  0  0
  -90.5151   35.5378   -6.3749 C   0  0  0  0  0  0  0  0  0  0  0  0
  -89.9179   36.5648   -4.2480 C   0  0  0  0  0  0  0  0  0  0  0  0
  -89.5799   37.8694   -6.3535 C   0  0  0  0  0  0  0  0  0  0  0  0
 12 13  1  0  0  0
 13 14  1  0  0  0
 14 15  1  0  0  0
 15 19  1  0  0  0
 19 20  1  0  0  0
 20 21  1  0  0  0
 15 16  1  0  0  0
 16 17  1  0  0  0
 17 18  1  0  0  0
 18  1  1  0  0  0
  1  2  2  0  0  0
  2  3  1  0  0  0
  3  4  1  0  0  0
  4  5  1  0  0  0
  5 23  1  0  0  0
 23 24  1  0  0  0
 24 25  1  0  0  0
 24 26  1  0  0  0
 24 27  1  0  0  0
  5  6  2  0  0  0
  6  7  1  0  0  0
  7  8  1  0  0  0
  8  9  2  0  0  0
  9 10  1  0  0  0
 18 13  1  0  0  0
  9  1  1  0  0  0
  7  3  2  0  0  0
 21 22  1  0  0  0
  4 11  1  0  0  0
M  END
> <minimizedAffinity>
-6.43474

> <CNNscore>
0.1234424263

> <CNNaffinity>
5.8240246773

> <CNN_VS>
0.7189317346

> <CNNaffinity_variance>
0.1062937155

$$$$
[H]OC([H])([H])C([H])([H])N1C([H])([H])C([H])([H])N(c2c(Cl)c([H])c3nc(SC(C([H])([H])[H])(C([H])([H])[H])C([H])([H])[H])n([H])c3c2[H])[C@]([H])(C([H])([H])[H])C1([H])[H]


 27 29  0  0  0  0  0  0  0  0999 V2000
  -89.0384   31.4354   -2.2978 C   0  0  0  0  0  0  0  0  0  0  0  0
  -88.2582   30.3856   -1.7828 C   0  0  0  0  0  0  0  0  0  0  0  0
  -87.1239   30.6074   -1.0399 C   0  0  0  0  0  0  0  0  0  0  0  0
  -86.2544   29.7549   -0.4672 N   0  0  0  0  0  0  0  0  0  0  0  0
  -85.3269   30.5170    0.1388 C   0  0  0  0  0  0  0  0  0  0  0  0
  -85.6104   31.8158   -0.0511 N   0  0  0  0  0  0  0  0  0  0  0  0
  -86.7268   31.9262   -0.7835 C   0  0  0  0  0  0  0  0  0  0  0  0
  -87.4811   32.9679   -1.2815 C   0  0  0  0  0  0  0  0  0  0  0  0
  -88.6274   32.7255   -2.0328 C   0  0  0  0  0  0  0  0  0  0  0  0
  -89.4978   34.1222   -2.6389 Cl  0  0  0  0  0  0  0  0  0  0  0  0
  -86.3257   28.7130   -0.5108 H   0  0  0  0  0  0  0  0  0  0  0  0
  -91.4626   29.7301   -1.3823 C   0  0  0  0  0  0  0  0  0  0  0  0
  -91.4453   30.6204   -2.5479 C   0  0  0  0  0  0  0  0  0  0  0  0
  -92.0353   29.7918   -3.6966 C   0  0  0  0  0  0  0  0  0  0  0  0
  -92.6254   30.6971   -4.6368 N   0  0  0  0  0  0  0  0  0  0  0  0
  -91.7107   31.7494   -4.8748 C   0  0  0  0  0  0  0  0  0  0  0  0
  -90.2687   31.3757   -4.4408 C   0  0  0  0  0  0  0  0  0  0  0  0
  -90.1999   31.1307   -3.0169 N   0  0  0  0  0  0  0  0  0  0  0  0
  -93.0742   29.9477   -5.7625 C   0  0  0  0  0  0  0  0  0  0  0  0
  -92.9414   28.4671   -5.6687 C   0  0  0  0  0  0  0  0  0  0  0  0
  -92.1870   28.0376   -6.7787 O   0  0  0  0  0  0  0  0  0  0  0  0
  -91.7695   28.7871   -7.2570 H   0  0  0  0  0  0  0  0  0  0  0  0
  -83.9416   29.8616    1.0494 S   0  0  0  0  0  0  0  0  0  0  0  0
  -84.6121   28.7188    2.3008 C   0  0  0  0  0  0  0  0  0  0  0  0
  -85.5687   27.7887    1.5987 C   0  0  0  0  0  0  0  0  0  0  0  0
  -83.4762   27.8734    2.8433 C   0  0  0  0  0  0  0  0  0  0  0  0
  -85.2608   29.5425    3.3709 C   0  0  0  0  0  0  0  0  0  0  0  0
 12 13  1  0  0  0
 13 14  1  0  0  0
 14 15  1  0  0  0
 15 19  1  0  0  0
 19 20  1  0  0  0
 20 21  1  0  0  0
 15 16  1  0  0  0
 16 17  1  0  0  0
 17 18  1  0  0  0
 18  1  1  0  0  0
  1  2  2  0  0  0
  2  3  1  0  0  0
  3  4  1  0  0  0
  4  5  1  0  0  0
  5 23  1  0  0  0
 23 24  1  0  0  0
 24 25  1  0  0  0
 24 26  1  0  0  0
 24 27  1  0  0  0
  5  6  2  0  0  0
  6  7  1  0  0  0
  7  8  1  0  0  0
  8  9  2  0  0  0
  9 10  1  0  0  0
 18 13  1  0  0  0
  9  1  1  0  0  0
  7  3  2  0  0  0
 21 22  1  0  0  0
  4 11  1  0  0  0
M  END
> <minimizedAffinity>
-7.22069

> <CNNscore>
0.1015988663

> <CNNaffinity>
5.7857427597

> <CNN_VS>
0.5878248811

> <CNNaffinity_variance>
0.0662300438

$$$$
[H]OC([H])([H])C([H])([H])N1C([H])([H])C([H])([H])N(c2c(Cl)c([H])c3nc(SC(C([H])([H])[H])(C([H])([H])[H])C([H])([H])[H])n([H])c3c2[H])[C@]([H])(C([H])([H])[H])C1([H])[H]


 27 29  0  0  0  0  0  0  0  0999 V2000
  -89.9377   28.2655   -0.8579 C   0  0  0  0  0  0  0  0  0  0  0  0
  -89.4286   28.6533   -2.1094 C   0  0  0  0  0  0  0  0  0  0  0  0
  -89.3285   29.9706   -2.4872 C   0  0  0  0  0  0  0  0  0  0  0  0
  -88.8774   30.5395   -3.6202 N   0  0  0  0  0  0  0  0  0  0  0  0
  -89.0079   31.8671   -3.4501 C   0  0  0  0  0  0  0  0  0  0  0  0
  -89.5286   32.1215   -2.2388 N   0  0  0  0  0  0  0  0  0  0  0  0
  -89.7476   30.9668   -1.5958 C   0  0  0  0  0  0  0  0  0  0  0  0
  -90.2496   30.6033   -0.3637 C   0  0  0  0  0  0  0  0  0  0  0  0
  -90.3447   29.2640    0.0029 C   0  0  0  0  0  0  0  0  0  0  0  0
  -91.0213   28.9122    1.5823 Cl  0  0  0  0  0  0  0  0  0  0  0  0
  -88.5076   30.0136   -4.4443 H   0  0  0  0  0  0  0  0  0  0  0  0
  -87.7072   26.5459    0.4422 C   0  0  0  0  0  0  0  0  0  0  0  0
  -89.1161   26.1558    0.3227 C   0  0  0  0  0  0  0  0  0  0  0  0
  -89.0925   24.7253   -0.2318 C   0  0  0  0  0  0  0  0  0  0  0  0
  -90.2887   24.0649    0.1979 N   0  0  0  0  0  0  0  0  0  0  0  0
  -91.3823   24.9320   -0.0325 C   0  0  0  0  0  0  0  0  0  0  0  0
  -91.0304   26.0560   -1.0424 C   0  0  0  0  0  0  0  0  0  0  0  0
  -89.9769   26.9051   -0.5310 N   0  0  0  0  0  0  0  0  0  0  0  0
  -90.3325   22.7751   -0.4058 C   0  0  0  0  0  0  0  0  0  0  0  0
  -89.8482   21.6377    0.4249 C   0  0  0  0  0  0  0  0  0  0  0  0
  -88.5171   21.3720    0.0461 O   0  0  0  0  0  0  0  0  0  0  0  0
  -88.1455   22.0783   -0.5265 H   0  0  0  0  0  0  0  0  0  0  0  0
  -88.5463   33.0767   -4.6755 S   0  0  0  0  0  0  0  0  0  0  0  0
  -87.8991   34.5277   -3.7824 C   0  0  0  0  0  0  0  0  0  0  0  0
  -86.8791   34.0308   -2.7896 C   0  0  0  0  0  0  0  0  0  0  0  0
  -87.1716   35.4196   -4.7696 C   0  0  0  0  0  0  0  0  0  0  0  0
  -89.0602   35.2262   -3.1433 C   0  0  0  0  0  0  0  0  0  0  0  0
 12 13  1  0  0  0
 13 14  1  0  0  0
 14 15  1  0  0  0
 15 19  1  0  0  0
 19 20  1  0  0  0
 20 21  1  0  0  0
 15 16  1  0  0  0
 16 17  1  0  0  0
 17 18  1  0  0  0
 18  1  1  0  0  0
  1  2  2  0  0  0
  2  3  1  0  0  0
  3  4  1  0  0  0
  4  5  1  0  0  0
  5 23  1  0  0  0
 23 24  1  0  0  0
 24 25  1  0  0  0
 24 26  1  0  0  0
 24 27  1  0  0  0
  5  6  2  0  0  0
  6  7  1  0  0  0
  7  8  1  0  0  0
  8  9  2  0  0  0
  9 10  1  0  0  0
 18 13  1  0  0  0
  9  1  1  0  0  0
  7  3  2  0  0  0
 21 22  1  0  0  0
  4 11  1  0  0  0
M  END
> <minimizedAffinity>
-6.46176

> <CNNscore>
0.0893865302

> <CNNaffinity>
5.4371609688

> <CNN_VS>
0.4860089421

> <CNNaffinity_variance>
0.2430210561

$$$$
[H]OC([H])([H])C([H])([H])N1C([H])([H])C([H])([H])N(c2c(Cl)c([H])c3nc(SC(C([H])([H])[H])(C([H])([H])[H])C([H])([H])[H])n([H])c3c2[H])[C@]([H])(C([H])([H])[H])C1([H])[H]


 27 29  0  0  0  0  0  0  0  0999 V2000
  -88.6051   31.6471   -3.3430 C   0  0  0  0  0  0  0  0  0  0  0  0
  -87.6070   32.6278   -3.2090 C   0  0  0  0  0  0  0  0  0  0  0  0
  -87.6099   33.7867   -3.9471 C   0  0  0  0  0  0  0  0  0  0  0  0
  -86.7615   34.8310   -3.9672 N   0  0  0  0  0  0  0  0  0  0  0  0
  -87.2472   35.6904   -4.8805 C   0  0  0  0  0  0  0  0  0  0  0  0
  -88.3730   35.1942   -5.4186 N   0  0  0  0  0  0  0  0  0  0  0  0
  -88.6435   34.0034   -4.8677 C   0  0  0  0  0  0  0  0  0  0  0  0
  -89.6308   33.0511   -5.0115 C   0  0  0  0  0  0  0  0  0  0  0  0
  -89.6124   31.8822   -4.2562 C   0  0  0  0  0  0  0  0  0  0  0  0
  -90.9019   30.7271   -4.5366 Cl  0  0  0  0  0  0  0  0  0  0  0  0
  -85.9062   34.9149   -3.3723 H   0  0  0  0  0  0  0  0  0  0  0  0
  -89.4475   31.3766   -0.3699 C   0  0  0  0  0  0  0  0  0  0  0  0
  -89.1941   30.2574   -1.2836 C   0  0  0  0  0  0  0  0  0  0  0  0
  -88.2762   29.3038   -0.5076 C   0  0  0  0  0  0  0  0  0  0  0  0
  -88.4839   27.9803   -1.0145 N   0  0  0  0  0  0  0  0  0  0  0  0
  -88.4693   28.0382   -2.4278 C   0  0  0  0  0  0  0  0  0  0  0  0
  -87.8074   29.3410   -2.9494 C   0  0  0  0  0  0  0  0  0  0  0  0
  -88.5531   30.5079   -2.5316 N   0  0  0  0  0  0  0  0  0  0  0  0
  -87.5548   27.1048   -0.3817 C   0  0  0  0  0  0  0  0  0  0  0  0
  -88.1160   26.1512    0.6153 C   0  0  0  0  0  0  0  0  0  0  0  0
  -88.2478   24.9007   -0.0210 O   0  0  0  0  0  0  0  0  0  0  0  0
  -87.7905   24.8756   -0.8899 H   0  0  0  0  0  0  0  0  0  0  0  0
  -86.4803   37.2474   -5.2875 S   0  0  0  0  0  0  0  0  0  0  0  0
  -87.3639   38.5420   -4.3574 C   0  0  0  0  0  0  0  0  0  0  0  0
  -86.3641   39.6183   -4.0179 C   0  0  0  0  0  0  0  0  0  0  0  0
  -88.4071   39.1644   -5.2649 C   0  0  0  0  0  0  0  0  0  0  0  0
  -87.9788   37.8995   -3.1517 C   0  0  0  0  0  0  0  0  0  0  0  0
 12 13  1  0  0  0
 13 14  1  0  0  0
 14 15  1  0  0  0
 15 19  1  0  0  0
 19 20  1  0  0  0
 20 21  1  0  0  0
 15 16  1  0  0  0
 16 17  1  0  0  0
 17 18  1  0  0  0
 18  1  1  0  0  0
  1  2  2  0  0  0
  2  3  1  0  0  0
  3  4  1  0  0  0
  4  5  1  0  0  0
  5 23  1  0  0  0
 23 24  1  0  0  0
 24 25  1  0  0  0
 24 26  1  0  0  0
 24 27  1  0  0  0
  5  6  2  0  0  0
  6  7  1  0  0  0
  7  8  1  0  0  0
  8  9  2  0  0  0
  9 10  1  0  0  0
 18 13  1  0  0  0
  9  1  1  0  0  0
  7  3  2  0  0  0
 21 22  1  0  0  0
  4 11  1  0  0  0
M  END
> <minimizedAffinity>
-6.50947

> <CNNscore>
0.0805491731

> <CNNaffinity>
5.4013686180

> <CNN_VS>
0.4350757897

> <CNNaffinity_variance>
0.2609921098

$$$$
[H]OC([H])([H])C([H])([H])N1C([H])([H])C([H])([H])N(c2c(Cl)c([H])c3nc(SC(C([H])([H])[H])(C([H])([H])[H])C([H])([H])[H])n([H])c3c2[H])[C@]([H])(C([H])([H])[H])C1([H])[H]


 27 29  0  0  0  0  0  0  0  0999 V2000
  -89.7436   27.6600   -0.4652 C   0  0  0  0  0  0  0  0  0  0  0  0
  -88.4091   27.9571   -0.1382 C   0  0  0  0  0  0  0  0  0  0  0  0
  -87.8987   29.2305   -0.2140 C   0  0  0  0  0  0  0  0  0  0  0  0
  -86.6711   29.7142    0.0503 N   0  0  0  0  0  0  0  0  0  0  0  0
  -86.7287   31.0353   -0.1945 C   0  0  0  0  0  0  0  0  0  0  0  0
  -87.9638   31.3690   -0.6023 N   0  0  0  0  0  0  0  0  0  0  0  0
  -88.7350   30.2740   -0.6315 C   0  0  0  0  0  0  0  0  0  0  0  0
  -90.0471   29.9996   -0.9561 C   0  0  0  0  0  0  0  0  0  0  0  0
  -90.5480   28.7036   -0.8744 C   0  0  0  0  0  0  0  0  0  0  0  0
  -92.2230   28.4619   -1.3347 Cl  0  0  0  0  0  0  0  0  0  0  0  0
  -85.8625   29.1392    0.3789 H   0  0  0  0  0  0  0  0  0  0  0  0
  -90.5270   26.1646    2.1371 C   0  0  0  0  0  0  0  0  0  0  0  0
  -90.8473   25.7208    0.7762 C   0  0  0  0  0  0  0  0  0  0  0  0
  -90.4521   24.2390    0.7321 C   0  0  0  0  0  0  0  0  0  0  0  0
  -91.2635   23.5944   -0.2569 N   0  0  0  0  0  0  0  0  0  0  0  0
  -91.2656   24.3967   -1.4218 C   0  0  0  0  0  0  0  0  0  0  0  0
  -90.0919   25.4115   -1.4310 C   0  0  0  0  0  0  0  0  0  0  0  0
  -90.2005   26.3439   -0.3304 N   0  0  0  0  0  0  0  0  0  0  0  0
  -90.8264   22.2446   -0.3878 C   0  0  0  0  0  0  0  0  0  0  0  0
  -89.8392   21.7669    0.6200 C   0  0  0  0  0  0  0  0  0  0  0  0
  -88.6640   21.4123   -0.0721 O   0  0  0  0  0  0  0  0  0  0  0  0
  -88.6770   21.7153   -1.0064 H   0  0  0  0  0  0  0  0  0  0  0  0
  -85.3477   32.1447    0.0053 S   0  0  0  0  0  0  0  0  0  0  0  0
  -84.1682   31.3379    1.1364 C   0  0  0  0  0  0  0  0  0  0  0  0
  -82.8641   32.0887    1.0421 C   0  0  0  0  0  0  0  0  0  0  0  0
  -84.6763   31.4914    2.5568 C   0  0  0  0  0  0  0  0  0  0  0  0
  -84.0573   29.8998    0.7312 C   0  0  0  0  0  0  0  0  0  0  0  0
 12 13  1  0  0  0
 13 14  1  0  0  0
 14 15  1  0  0  0
 15 19  1  0  0  0
 19 20  1  0  0  0
 20 21  1  0  0  0
 15 16  1  0  0  0
 16 17  1  0  0  0
 17 18  1  0  0  0
 18  1  1  0  0  0
  1  2  2  0  0  0
  2  3  1  0  0  0
  3  4  1  0  0  0
  4  5  1  0  0  0
  5 23  1  0  0  0
 23 24  1  0  0  0
 24 25  1  0  0  0
 24 26  1  0  0  0
 24 27  1  0  0  0
  5  6  2  0  0  0
  6  7  1  0  0  0
  7  8  1  0  0  0
  8  9  2  0  0  0
  9 10  1  0  0  0
 18 13  1  0  0  0
  9  1  1  0  0  0
  7  3  2  0  0  0
 21 22  1  0  0  0
  4 11  1  0  0  0
M  END
> <minimizedAffinity>
-7.11549

> <CNNscore>
0.0709367916

> <CNNaffinity>
5.7064132690

> <CNN_VS>
0.4047946632

> <CNNaffinity_variance>
0.2355846614

$$$$
[H]c1nc(N([H])S(=O)(=O)c2c([H])c(Cl)c(N(C([H])([H])[H])[C@]3([H])C([H])([H])N(C([H])([H])c4c([H])c([H])c(Cl)c([H])c4[H])C([H])([H])C3([H])[H])c([H])c2F)c([H])s1


 33 36  0  0  0  0  0  0  0  0999 V2000
  -88.5061   30.1529   -2.1039 C   0  0  0  0  0  0  0  0  0  0  0  0
  -87.8444   28.9985   -2.4635 C   0  0  0  0  0  0  0  0  0  0  0  0
  -87.6345   27.9765   -1.5658 C   0  0  0  0  0  0  0  0  0  0  0  0
  -86.9765   26.8366   -1.9356 F   0  0  0  0  0  0  0  0  0  0  0  0
  -88.0808   28.0556   -0.2435 C   0  0  0  0  0  0  0  0  0  0  0  0
  -88.7409   29.2117    0.1063 C   0  0  0  0  0  0  0  0  0  0  0  0
  -88.9468   30.2308   -0.7992 C   0  0  0  0  0  0  0  0  0  0  0  0
  -89.8003   31.7026   -0.3087 Cl  0  0  0  0  0  0  0  0  0  0  0  0
  -87.8109   26.7177    0.8518 S   0  0  0  0  0  0  0  0  0  0  0  0
  -86.8882   27.2428    1.9366 O   0  0  0  0  0  0  0  0  0  0  0  0
  -87.0994   25.5897    0.1853 O   0  0  0  0  0  0  0  0  0  0  0  0
  -89.2311   26.1727    1.6258 N   0  0  0  0  0  0  0  0  0  0  0  0
  -89.8573   25.5419    1.0825 H   0  0  0  0  0  0  0  0  0  0  0  0
  -89.5850   26.5537    2.9879 C   0  0  0  0  0  0  0  0  0  0  0  0
  -89.5993   25.6231    4.0021 C   0  0  0  0  0  0  0  0  0  0  0  0
  -90.0655   26.5781    5.3373 S   0  0  0  0  0  0  0  0  0  0  0  0
  -90.2130   28.0807    4.5420 C   0  0  0  0  0  0  0  0  0  0  0  0
  -89.8975   27.7715    3.2972 N   0  0  0  0  0  0  0  0  0  0  0  0
  -89.9640   31.2637   -3.7764 C   0  0  0  0  0  0  0  0  0  0  0  0
  -88.7379   31.2221   -3.0028 N   0  0  0  0  0  0  0  0  0  0  0  0
  -87.7909   32.2743   -3.1744 C   0  0  0  0  0  0  0  0  0  0  0  0
  -88.3039   33.6328   -2.7425 C   0  0  0  0  0  0  0  0  0  0  0  0
  -86.9905   34.3980   -2.6217 C   0  0  0  0  0  0  0  0  0  0  0  0
  -86.0641   33.4579   -2.0762 N   0  0  0  0  0  0  0  0  0  0  0  0
  -86.5842   32.1344   -2.2354 C   0  0  0  0  0  0  0  0  0  0  0  0
  -85.7413   33.8206   -0.7289 C   0  0  0  0  0  0  0  0  0  0  0  0
  -85.0194   32.6973   -0.0834 C   0  0  0  0  0  0  0  0  0  0  0  0
  -83.6309   32.5989   -0.2207 C   0  0  0  0  0  0  0  0  0  0  0  0
  -82.9021   31.5836    0.3590 C   0  0  0  0  0  0  0  0  0  0  0  0
  -83.5397   30.6198    1.1047 C   0  0  0  0  0  0  0  0  0  0  0  0
  -82.5931   29.3406    1.8310 Cl  0  0  0  0  0  0  0  0  0  0  0  0
  -84.8986   30.6816    1.2624 C   0  0  0  0  0  0  0  0  0  0  0  0
  -85.6155   31.7152    0.6687 C   0  0  0  0  0  0  0  0  0  0  0  0
 19 20  1  0  0  0
 20  1  1  0  0  0
  1  2  2  0  0  0
  2  3  1  0  0  0
  3  4  1  0  0  0
  3  5  2  0  0  0
  5  9  1  0  0  0
  9 10  2  0  0  0
  9 11  2  0  0  0
  9 12  1  0  0  0
 12 14  1  0  0  0
 14 15  2  0  0  0
 15 16  1  0  0  0
 16 17  1  0  0  0
 17 18  2  0  0  0
  5  6  1  0  0  0
  6  7  2  0  0  0
  7  8  1  0  0  0
 20 21  1  0  0  0
 21 22  1  0  0  0
 22 23  1  0  0  0
 23 24  1  0  0  0
 24 26  1  0  0  0
 26 27  1  0  0  0
 27 28  2  0  0  0
 28 29  1  0  0  0
 29 30  2  0  0  0
 30 31  1  0  0  0
 30 32  1  0  0  0
 32 33  2  0  0  0
 24 25  1  0  0  0
  7  1  1  0  0  0
 25 21  1  0  0  0
 18 14  1  0  0  0
 33 27  1  0  0  0
 12 13  1  0  0  0
M  END
> <minimizedAffinity>
-8.96657

> <CNNscore>
0.3318902850

> <CNNaffinity>
7.1859636307

> <CNN_VS>
2.3849515915

> <CNNaffinity_variance>
0.4598324895

$$$$
[H]c1nc(N([H])S(=O)(=O)c2c([H])c(Cl)c(N(C([H])([H])[H])[C@]3([H])C([H])([H])N(C([H])([H])c4c([H])c([H])c(Cl)c([H])c4[H])C([H])([H])C3([H])[H])c([H])c2F)c([H])s1


 33 36  0  0  0  0  0  0  0  0999 V2000
  -90.3060   28.1131   -0.0743 C   0  0  0  0  0  0  0  0  0  0  0  0
  -90.9840   28.8004    0.9094 C   0  0  0  0  0  0  0  0  0  0  0  0
  -90.9399   28.4064    2.2274 C   0  0  0  0  0  0  0  0  0  0  0  0
  -91.6172   29.0972    3.1934 F   0  0  0  0  0  0  0  0  0  0  0  0
  -90.2059   27.2895    2.6372 C   0  0  0  0  0  0  0  0  0  0  0  0
  -89.5318   26.6099    1.6482 C   0  0  0  0  0  0  0  0  0  0  0  0
  -89.5815   27.0112    0.3301 C   0  0  0  0  0  0  0  0  0  0  0  0
  -88.7001   26.1086   -0.9123 Cl  0  0  0  0  0  0  0  0  0  0  0  0
  -90.1617   26.8453    4.3293 S   0  0  0  0  0  0  0  0  0  0  0  0
  -91.5306   26.2729    4.6490 O   0  0  0  0  0  0  0  0  0  0  0  0
  -89.9714   28.0331    5.2101 O   0  0  0  0  0  0  0  0  0  0  0  0
  -89.0173   25.6301    4.6858 N   0  0  0  0  0  0  0  0  0  0  0  0
  -88.1101   25.9361    5.0962 H   0  0  0  0  0  0  0  0  0  0  0  0
  -89.2646   24.2146    4.4391 C   0  0  0  0  0  0  0  0  0  0  0  0
  -90.2438   23.8098    3.5604 C   0  0  0  0  0  0  0  0  0  0  0  0
  -90.1056   22.1114    3.6514 S   0  0  0  0  0  0  0  0  0  0  0  0
  -88.8317   22.0156    4.7829 C   0  0  0  0  0  0  0  0  0  0  0  0
  -88.5801   23.2884    5.0306 N   0  0  0  0  0  0  0  0  0  0  0  0
  -91.2883   27.8815   -2.3410 C   0  0  0  0  0  0  0  0  0  0  0  0
  -90.3311   28.4920   -1.4384 N   0  0  0  0  0  0  0  0  0  0  0  0
  -89.4328   29.4685   -1.9606 C   0  0  0  0  0  0  0  0  0  0  0  0
  -89.9367   30.8914   -1.8318 C   0  0  0  0  0  0  0  0  0  0  0  0
  -88.6380   31.6636   -2.0375 C   0  0  0  0  0  0  0  0  0  0  0  0
  -87.6392   30.8910   -1.3705 N   0  0  0  0  0  0  0  0  0  0  0  0
  -88.1377   29.5693   -1.1421 C   0  0  0  0  0  0  0  0  0  0  0  0
  -87.1971   31.5799   -0.1954 C   0  0  0  0  0  0  0  0  0  0  0  0
  -86.0539   30.8444    0.3975 C   0  0  0  0  0  0  0  0  0  0  0  0
  -84.7965   31.4543    0.4569 C   0  0  0  0  0  0  0  0  0  0  0  0
  -83.6969   30.8270    1.0005 C   0  0  0  0  0  0  0  0  0  0  0  0
  -83.8140   29.5548    1.5099 C   0  0  0  0  0  0  0  0  0  0  0  0
  -82.4039   28.7788    2.1948 Cl  0  0  0  0  0  0  0  0  0  0  0  0
  -85.0288   28.9241    1.4700 C   0  0  0  0  0  0  0  0  0  0  0  0
  -86.1263   29.5754    0.9169 C   0  0  0  0  0  0  0  0  0  0  0  0
 19 20  1  0  0  0
 20  1  1  0  0  0
  1  2  2  0  0  0
  2  3  1  0  0  0
  3  4  1  0  0  0
  3  5  2  0  0  0
  5  9  1  0  0  0
  9 10  2  0  0  0
  9 11  2  0  0  0
  9 12  1  0  0  0
 12 14  1  0  0  0
 14 15  2  0  0  0
 15 16  1  0  0  0
 16 17  1  0  0  0
 17 18  2  0  0  0
  5  6  1  0  0  0
  6  7  2  0  0  0
  7  8  1  0  0  0
 20 21  1  0  0  0
 21 22  1  0  0  0
 22 23  1  0  0  0
 23 24  1  0  0  0
 24 26  1  0  0  0
 26 27  1  0  0  0
 27 28  2  0  0  0
 28 29  1  0  0  0
 29 30  2  0  0  0
 30 31  1  0  0  0
 30 32  1  0  0  0
 32 33  2  0  0  0
 24 25  1  0  0  0
  7  1  1  0  0  0
 25 21  1  0  0  0
 18 14  1  0  0  0
 33 27  1  0  0  0
 12 13  1  0  0  0
M  END
> <minimizedAffinity>
-8.71331

> <CNNscore>
0.2087156773

> <CNNaffinity>
6.7745361328

> <CNN_VS>
1.4139518738

> <CNNaffinity_variance>
0.4028609395

$$$$
[H]c1nc(N([H])S(=O)(=O)c2c([H])c(Cl)c(N(C([H])([H])[H])[C@]3([H])C([H])([H])N(C([H])([H])c4c([H])c([H])c(Cl)c([H])c4[H])C([H])([H])C3([H])[H])c([H])c2F)c([H])s1


 33 36  0  0  0  0  0  0  0  0999 V2000
  -88.4598   30.0131   -1.9922 C   0  0  0  0  0  0  0  0  0  0  0  0
  -87.7818   28.8673   -2.3492 C   0  0  0  0  0  0  0  0  0  0  0  0
  -87.5557   27.8513   -1.4486 C   0  0  0  0  0  0  0  0  0  0  0  0
  -86.8817   26.7200   -1.8159 F   0  0  0  0  0  0  0  0  0  0  0  0
  -88.0016   27.9278   -0.1260 C   0  0  0  0  0  0  0  0  0  0  0  0
  -88.6780   29.0751    0.2212 C   0  0  0  0  0  0  0  0  0  0  0  0
  -88.8999   30.0884   -0.6871 C   0  0  0  0  0  0  0  0  0  0  0  0
  -89.7743   31.5491   -0.1999 Cl  0  0  0  0  0  0  0  0  0  0  0  0
  -87.7107   26.5973    0.9730 S   0  0  0  0  0  0  0  0  0  0  0  0
  -88.5476   26.8814    2.2070 O   0  0  0  0  0  0  0  0  0  0  0  0
  -86.2881   26.5444    1.4160 O   0  0  0  0  0  0  0  0  0  0  0  0
  -88.2180   25.0859    0.3635 N   0  0  0  0  0  0  0  0  0  0  0  0
  -87.5477   24.2923    0.4403 H   0  0  0  0  0  0  0  0  0  0  0  0
  -89.5261   24.8780   -0.2458 C   0  0  0  0  0  0  0  0  0  0  0  0
  -89.6627   24.7774   -1.6118 C   0  0  0  0  0  0  0  0  0  0  0  0
  -91.3461   24.5476   -1.7722 S   0  0  0  0  0  0  0  0  0  0  0  0
  -91.7720   24.5922   -0.1204 C   0  0  0  0  0  0  0  0  0  0  0  0
  -90.6034   24.7803    0.4658 N   0  0  0  0  0  0  0  0  0  0  0  0
  -89.9301   31.0908   -3.6754 C   0  0  0  0  0  0  0  0  0  0  0  0
  -88.7083   31.0760   -2.8940 N   0  0  0  0  0  0  0  0  0  0  0  0
  -87.7827   32.1477   -3.0609 C   0  0  0  0  0  0  0  0  0  0  0  0
  -88.3193   33.4922   -2.6141 C   0  0  0  0  0  0  0  0  0  0  0  0
  -87.0202   34.2814   -2.4932 C   0  0  0  0  0  0  0  0  0  0  0  0
  -86.0730   33.3545   -1.9611 N   0  0  0  0  0  0  0  0  0  0  0  0
  -86.5685   32.0226   -2.1296 C   0  0  0  0  0  0  0  0  0  0  0  0
  -85.7500   33.7112   -0.6123 C   0  0  0  0  0  0  0  0  0  0  0  0
  -84.9092   32.6449   -0.0160 C   0  0  0  0  0  0  0  0  0  0  0  0
  -85.5070   31.6488    0.7631 C   0  0  0  0  0  0  0  0  0  0  0  0
  -84.7826   30.6283    1.3392 C   0  0  0  0  0  0  0  0  0  0  0  0
  -83.4210   30.5645    1.1564 C   0  0  0  0  0  0  0  0  0  0  0  0
  -82.5225   29.2595    1.8977 Cl  0  0  0  0  0  0  0  0  0  0  0  0
  -82.7988   31.5216    0.3999 C   0  0  0  0  0  0  0  0  0  0  0  0
  -83.5490   32.5434   -0.1729 C   0  0  0  0  0  0  0  0  0  0  0  0
 19 20  1  0  0  0
 20  1  1  0  0  0
  1  2  2  0  0  0
  2  3  1  0  0  0
  3  4  1  0  0  0
  3  5  2  0  0  0
  5  9  1  0  0  0
  9 10  2  0  0  0
  9 11  2  0  0  0
  9 12  1  0  0  0
 12 14  1  0  0  0
 14 15  2  0  0  0
 15 16  1  0  0  0
 16 17  1  0  0  0
 17 18  2  0  0  0
  5  6  1  0  0  0
  6  7  2  0  0  0
  7  8  1  0  0  0
 20 21  1  0  0  0
 21 22  1  0  0  0
 22 23  1  0  0  0
 23 24  1  0  0  0
 24 26  1  0  0  0
 26 27  1  0  0  0
 27 28  2  0  0  0
 28 29  1  0  0  0
 29 30  2  0  0  0
 30 31  1  0  0  0
 30 32  1  0  0  0
 32 33  2  0  0  0
 24 25  1  0  0  0
  7  1  1  0  0  0
 25 21  1  0  0  0
 18 14  1  0  0  0
 33 27  1  0  0  0
 12 13  1  0  0  0
M  END
> <minimizedAffinity>
-8.95068

> <CNNscore>
0.1960462481

> <CNNaffinity>
6.9597334862

> <CNN_VS>
1.3644295931

> <CNNaffinity_variance>
0.5809321404

$$$$
[H]c1nc(N([H])S(=O)(=O)c2c([H])c(Cl)c(N(C([H])([H])[H])[C@]3([H])C([H])([H])N(C([H])([H])c4c([H])c([H])c(Cl)c([H])c4[H])C([H])([H])C3([H])[H])c([H])c2F)c([H])s1


 33 36  0  0  0  0  0  0  0  0999 V2000
  -89.8012   30.9107   -2.6974 C   0  0  0  0  0  0  0  0  0  0  0  0
  -89.9353   29.6431   -3.2219 C   0  0  0  0  0  0  0  0  0  0  0  0
  -90.0382   28.5338   -2.4136 C   0  0  0  0  0  0  0  0  0  0  0  0
  -90.1708   27.2820   -2.9469 F   0  0  0  0  0  0  0  0  0  0  0  0
  -90.0122   28.6344   -1.0196 C   0  0  0  0  0  0  0  0  0  0  0  0
  -89.8785   29.9040   -0.5050 C   0  0  0  0  0  0  0  0  0  0  0  0
  -89.7758   31.0099   -1.3219 C   0  0  0  0  0  0  0  0  0  0  0  0
  -89.6043   32.6263   -0.6196 Cl  0  0  0  0  0  0  0  0  0  0  0  0
  -90.1723   27.1958   -0.0361 S   0  0  0  0  0  0  0  0  0  0  0  0
  -89.4776   26.0844   -0.8017 O   0  0  0  0  0  0  0  0  0  0  0  0
  -91.5976   26.7881    0.1228 O   0  0  0  0  0  0  0  0  0  0  0  0
  -89.3981   27.3164    1.4802 N   0  0  0  0  0  0  0  0  0  0  0  0
  -90.0070   27.3412    2.3250 H   0  0  0  0  0  0  0  0  0  0  0  0
  -87.9489   27.3848    1.6245 C   0  0  0  0  0  0  0  0  0  0  0  0
  -87.2164   26.2652    1.9480 C   0  0  0  0  0  0  0  0  0  0  0  0
  -85.6298   26.8926    1.9861 S   0  0  0  0  0  0  0  0  0  0  0  0
  -85.9838   28.5155    1.5950 C   0  0  0  0  0  0  0  0  0  0  0  0
  -87.2971   28.4907    1.4561 N   0  0  0  0  0  0  0  0  0  0  0  0
  -90.8862   32.6823   -4.0540 C   0  0  0  0  0  0  0  0  0  0  0  0
  -89.6926   32.0715   -3.5010 N   0  0  0  0  0  0  0  0  0  0  0  0
  -88.4295   32.6676   -3.7880 C   0  0  0  0  0  0  0  0  0  0  0  0
  -88.4535   34.1823   -3.7771 C   0  0  0  0  0  0  0  0  0  0  0  0
  -86.9626   34.4810   -3.6619 C   0  0  0  0  0  0  0  0  0  0  0  0
  -86.4528   33.4814   -2.7785 N   0  0  0  0  0  0  0  0  0  0  0  0
  -87.3958   32.4095   -2.6824 C   0  0  0  0  0  0  0  0  0  0  0  0
  -86.0892   34.0782   -1.5285 C   0  0  0  0  0  0  0  0  0  0  0  0
  -85.2749   33.1145   -0.7489 C   0  0  0  0  0  0  0  0  0  0  0  0
  -83.9044   33.0025   -1.0052 C   0  0  0  0  0  0  0  0  0  0  0  0
  -83.0928   32.1313   -0.3121 C   0  0  0  0  0  0  0  0  0  0  0  0
  -83.6256   31.3321    0.6723 C   0  0  0  0  0  0  0  0  0  0  0  0
  -82.5753   30.2339    1.5387 Cl  0  0  0  0  0  0  0  0  0  0  0  0
  -84.9635   31.4127    0.9528 C   0  0  0  0  0  0  0  0  0  0  0  0
  -85.7652   32.2991    0.2411 C   0  0  0  0  0  0  0  0  0  0  0  0
 19 20  1  0  0  0
 20  1  1  0  0  0
  1  2  2  0  0  0
  2  3  1  0  0  0
  3  4  1  0  0  0
  3  5  2  0  0  0
  5  9  1  0  0  0
  9 10  2  0  0  0
  9 11  2  0  0  0
  9 12  1  0  0  0
 12 14  1  0  0  0
 14 15  2  0  0  0
 15 16  1  0  0  0
 16 17  1  0  0  0
 17 18  2  0  0  0
  5  6  1  0  0  0
  6  7  2  0  0  0
  7  8  1  0  0  0
 20 21  1  0  0  0
 21 22  1  0  0  0
 22 23  1  0  0  0
 23 24  1  0  0  0
 24 26  1  0  0  0
 26 27  1  0  0  0
 27 28  2  0  0  0
 28 29  1  0  0  0
 29 30  2  0  0  0
 30 31  1  0  0  0
 30 32  1  0  0  0
 32 33  2  0  0  0
 24 25  1  0  0  0
  7  1  1  0  0  0
 25 21  1  0  0  0
 18 14  1  0  0  0
 33 27  1  0  0  0
 12 13  1  0  0  0
M  END
> <minimizedAffinity>
-7.89961

> <CNNscore>
0.1526186913

> <CNNaffinity>
6.8673171997

> <CNN_VS>
1.0480809212

> <CNNaffinity_variance>
0.3815541863

$$$$
[H]c1nc(N([H])S(=O)(=O)c2c([H])c(Cl)c(N(C([H])([H])[H])[C@]3([H])C([H])([H])N(C([H])([H])c4c([H])c([H])c(Cl)c([H])c4[H])C([H])([H])C3([H])[H])c([H])c2F)c([H])s1


 33 36  0  0  0  0  0  0  0  0999 V2000
  -89.2700   30.5237   -2.2938 C   0  0  0  0  0  0  0  0  0  0  0  0
  -89.1411   29.2793   -2.8726 C   0  0  0  0  0  0  0  0  0  0  0  0
  -89.1647   28.1268   -2.1205 C   0  0  0  0  0  0  0  0  0  0  0  0
  -89.0358   26.8987   -2.7072 F   0  0  0  0  0  0  0  0  0  0  0  0
  -89.3205   28.1576   -0.7317 C   0  0  0  0  0  0  0  0  0  0  0  0
  -89.4490   29.4044   -0.1628 C   0  0  0  0  0  0  0  0  0  0  0  0
  -89.4240   30.5540   -0.9235 C   0  0  0  0  0  0  0  0  0  0  0  0
  -89.5919   32.1391   -0.1523 Cl  0  0  0  0  0  0  0  0  0  0  0  0
  -89.3696   26.6622    0.1760 S   0  0  0  0  0  0  0  0  0  0  0  0
  -88.6991   25.6183   -0.6983 O   0  0  0  0  0  0  0  0  0  0  0  0
  -90.7679   26.2001    0.4089 O   0  0  0  0  0  0  0  0  0  0  0  0
  -88.4941   26.7238    1.6398 N   0  0  0  0  0  0  0  0  0  0  0  0
  -87.4691   26.8978    1.5746 H   0  0  0  0  0  0  0  0  0  0  0  0
  -89.1209   26.5443    2.9439 C   0  0  0  0  0  0  0  0  0  0  0  0
  -89.5159   27.6285    3.6944 C   0  0  0  0  0  0  0  0  0  0  0  0
  -90.1647   26.8695    5.0784 S   0  0  0  0  0  0  0  0  0  0  0  0
  -89.9005   25.2443    4.6301 C   0  0  0  0  0  0  0  0  0  0  0  0
  -89.3300   25.3691    3.4453 N   0  0  0  0  0  0  0  0  0  0  0  0
  -90.4726   32.2304   -3.6344 C   0  0  0  0  0  0  0  0  0  0  0  0
  -89.2495   31.7276   -3.0388 N   0  0  0  0  0  0  0  0  0  0  0  0
  -88.0477   32.4723   -3.2248 C   0  0  0  0  0  0  0  0  0  0  0  0
  -88.2012   33.9551   -2.9548 C   0  0  0  0  0  0  0  0  0  0  0  0
  -86.7394   34.3593   -2.7963 C   0  0  0  0  0  0  0  0  0  0  0  0
  -86.1292   33.2726   -2.0991 N   0  0  0  0  0  0  0  0  0  0  0  0
  -86.9749   32.1215   -2.1839 C   0  0  0  0  0  0  0  0  0  0  0  0
  -85.7943   33.6776   -0.7668 C   0  0  0  0  0  0  0  0  0  0  0  0
  -84.9417   32.6370   -0.1427 C   0  0  0  0  0  0  0  0  0  0  0  0
  -85.5159   31.7037    0.7265 C   0  0  0  0  0  0  0  0  0  0  0  0
  -84.7798   30.7095    1.3330 C   0  0  0  0  0  0  0  0  0  0  0  0
  -83.4295   30.6100    1.0910 C   0  0  0  0  0  0  0  0  0  0  0  0
  -82.5158   29.3395    1.8725 Cl  0  0  0  0  0  0  0  0  0  0  0  0
  -82.8304   31.5054    0.2456 C   0  0  0  0  0  0  0  0  0  0  0  0
  -83.5921   32.5015   -0.3564 C   0  0  0  0  0  0  0  0  0  0  0  0
 19 20  1  0  0  0
 20  1  1  0  0  0
  1  2  2  0  0  0
  2  3  1  0  0  0
  3  4  1  0  0  0
  3  5  2  0  0  0
  5  9  1  0  0  0
  9 10  2  0  0  0
  9 11  2  0  0  0
  9 12  1  0  0  0
 12 14  1  0  0  0
 14 15  2  0  0  0
 15 16  1  0  0  0
 16 17  1  0  0  0
 17 18  2  0  0  0
  5  6  1  0  0  0
  6  7  2  0  0  0
  7  8  1  0  0  0
 20 21  1  0  0  0
 21 22  1  0  0  0
 22 23  1  0  0  0
 23 24  1  0  0  0
 24 26  1  0  0  0
 26 27  1  0  0  0
 27 28  2  0  0  0
 28 29  1  0  0  0
 29 30  2  0  0  0
 30 31  1  0  0  0
 30 32  1  0  0  0
 32 33  2  0  0  0
 24 25  1  0  0  0
  7  1  1  0  0  0
 25 21  1  0  0  0
 18 14  1  0  0  0
 33 27  1  0  0  0
 12 13  1  0  0  0
M  END
> <minimizedAffinity>
-8.80592

> <CNNscore>
0.1365921497

> <CNNaffinity>
6.8070321083

> <CNN_VS>
0.9297871590

> <CNNaffinity_variance>
0.4239022136

$$$$
[H]c1nc(N([H])S(=O)(=O)c2c([H])c(Cl)c(N(C([H])([H])[H])[C@]3([H])C([H])([H])N(C([H])([H])c4c([H])c([H])c(Cl)c([H])c4[H])C([H])([H])C3([H])[H])c([H])c2F)c([H])s1


 33 36  0  0  0  0  0  0  0  0999 V2000
  -91.3893   28.2500   -1.3702 C   0  0  0  0  0  0  0  0  0  0  0  0
  -91.4318   28.9136   -0.1628 C   0  0  0  0  0  0  0  0  0  0  0  0
  -90.7310   28.4646    0.9335 C   0  0  0  0  0  0  0  0  0  0  0  0
  -90.7819   29.1323    2.1253 F   0  0  0  0  0  0  0  0  0  0  0  0
  -89.9402   27.3132    0.8800 C   0  0  0  0  0  0  0  0  0  0  0  0
  -89.9035   26.6576   -0.3297 C   0  0  0  0  0  0  0  0  0  0  0  0
  -90.6088   27.1140   -1.4229 C   0  0  0  0  0  0  0  0  0  0  0  0
  -90.5352   26.2407   -2.9615 Cl  0  0  0  0  0  0  0  0  0  0  0  0
  -89.0485   26.7986    2.2951 S   0  0  0  0  0  0  0  0  0  0  0  0
  -89.4341   25.3495    2.5304 O   0  0  0  0  0  0  0  0  0  0  0  0
  -89.4528   27.5585    3.5125 O   0  0  0  0  0  0  0  0  0  0  0  0
  -87.3550   26.8362    2.0852 N   0  0  0  0  0  0  0  0  0  0  0  0
  -86.8197   25.9931    2.3813 H   0  0  0  0  0  0  0  0  0  0  0  0
  -86.6540   27.9826    1.5195 C   0  0  0  0  0  0  0  0  0  0  0  0
  -85.9313   28.8365    2.3216 C   0  0  0  0  0  0  0  0  0  0  0  0
  -85.3401   29.9601    1.1814 S   0  0  0  0  0  0  0  0  0  0  0  0
  -86.0345   29.2903   -0.2261 C   0  0  0  0  0  0  0  0  0  0  0  0
  -86.6816   28.2426    0.2514 N   0  0  0  0  0  0  0  0  0  0  0  0
  -93.4884   28.3108   -2.6917 C   0  0  0  0  0  0  0  0  0  0  0  0
  -92.0983   28.6853   -2.5159 N   0  0  0  0  0  0  0  0  0  0  0  0
  -91.4806   29.4916   -3.5167 C   0  0  0  0  0  0  0  0  0  0  0  0
  -92.3919   30.5584   -4.0885 C   0  0  0  0  0  0  0  0  0  0  0  0
  -91.3649   31.4780   -4.7403 C   0  0  0  0  0  0  0  0  0  0  0  0
  -90.2540   31.4861   -3.8428 N   0  0  0  0  0  0  0  0  0  0  0  0
  -90.3608   30.3747   -2.9478 C   0  0  0  0  0  0  0  0  0  0  0  0
  -90.1537   32.7651   -3.2063 C   0  0  0  0  0  0  0  0  0  0  0  0
  -88.7890   32.9240   -2.6481 C   0  0  0  0  0  0  0  0  0  0  0  0
  -88.5809   32.7581   -1.2749 C   0  0  0  0  0  0  0  0  0  0  0  0
  -87.3373   32.8863   -0.6960 C   0  0  0  0  0  0  0  0  0  0  0  0
  -86.2449   33.1878   -1.4754 C   0  0  0  0  0  0  0  0  0  0  0  0
  -84.6761   33.3456   -0.7179 Cl  0  0  0  0  0  0  0  0  0  0  0  0
  -86.4079   33.3578   -2.8244 C   0  0  0  0  0  0  0  0  0  0  0  0
  -87.6722   33.2239   -3.3885 C   0  0  0  0  0  0  0  0  0  0  0  0
 19 20  1  0  0  0
 20  1  1  0  0  0
  1  2  2  0  0  0
  2  3  1  0  0  0
  3  4  1  0  0  0
  3  5  2  0  0  0
  5  9  1  0  0  0
  9 10  2  0  0  0
  9 11  2  0  0  0
  9 12  1  0  0  0
 12 14  1  0  0  0
 14 15  2  0  0  0
 15 16  1  0  0  0
 16 17  1  0  0  0
 17 18  2  0  0  0
  5  6  1  0  0  0
  6  7  2  0  0  0
  7  8  1  0  0  0
 20 21  1  0  0  0
 21 22  1  0  0  0
 22 23  1  0  0  0
 23 24  1  0  0  0
 24 26  1  0  0  0
 26 27  1  0  0  0
 27 28  2  0  0  0
 28 29  1  0  0  0
 29 30  2  0  0  0
 30 31  1  0  0  0
 30 32  1  0  0  0
 32 33  2  0  0  0
 24 25  1  0  0  0
  7  1  1  0  0  0
 25 21  1  0  0  0
 18 14  1  0  0  0
 33 27  1  0  0  0
 12 13  1  0  0  0
M  END
> <minimizedAffinity>
-7.21127

> <CNNscore>
0.1327671260

> <CNNaffinity>
6.5680313110

> <CNN_VS>
0.8720186353

> <CNNaffinity_variance>
0.4987217784

$$$$
[H]c1nc(N([H])S(=O)(=O)c2c([H])c(Cl)c(N(C([H])([H])[H])[C@]3([H])C([H])([H])N(C([H])([H])c4c([H])c([H])c(Cl)c([H])c4[H])C([H])([H])C3([H])[H])c([H])c2F)c([H])s1


 33 36  0  0  0  0  0  0  0  0999 V2000
  -89.8437   29.7368   -1.4608 C   0  0  0  0  0  0  0  0  0  0  0  0
  -90.4871   29.6450   -0.2452 C   0  0  0  0  0  0  0  0  0  0  0  0
  -90.0282   28.8177    0.7544 C   0  0  0  0  0  0  0  0  0  0  0  0
  -90.6759   28.7361    1.9556 F   0  0  0  0  0  0  0  0  0  0  0  0
  -88.8866   28.0279    0.5897 C   0  0  0  0  0  0  0  0  0  0  0  0
  -88.2506   28.1265   -0.6270 C   0  0  0  0  0  0  0  0  0  0  0  0
  -88.7172   28.9576   -1.6232 C   0  0  0  0  0  0  0  0  0  0  0  0
  -87.8698   29.0550   -3.1750 Cl  0  0  0  0  0  0  0  0  0  0  0  0
  -88.3299   27.0117    1.9012 S   0  0  0  0  0  0  0  0  0  0  0  0
  -89.1827   25.7571    1.8513 O   0  0  0  0  0  0  0  0  0  0  0  0
  -88.5648   27.6436    3.2310 O   0  0  0  0  0  0  0  0  0  0  0  0
  -86.7046   26.5168    1.7379 N   0  0  0  0  0  0  0  0  0  0  0  0
  -86.5339   25.5282    1.4576 H   0  0  0  0  0  0  0  0  0  0  0  0
  -85.5783   27.4121    1.9732 C   0  0  0  0  0  0  0  0  0  0  0  0
  -85.6734   28.7571    1.6960 C   0  0  0  0  0  0  0  0  0  0  0  0
  -84.1221   29.3100    2.1433 S   0  0  0  0  0  0  0  0  0  0  0  0
  -83.4532   27.8236    2.6485 C   0  0  0  0  0  0  0  0  0  0  0  0
  -84.4526   26.9835    2.4481 N   0  0  0  0  0  0  0  0  0  0  0  0
  -91.6994   30.6245   -2.8481 C   0  0  0  0  0  0  0  0  0  0  0  0
  -90.2900   30.5774   -2.5092 N   0  0  0  0  0  0  0  0  0  0  0  0
  -89.3853   31.3906   -3.2531 C   0  0  0  0  0  0  0  0  0  0  0  0
  -89.7993   31.6012   -4.6952 C   0  0  0  0  0  0  0  0  0  0  0  0
  -88.9378   32.8065   -5.0562 C   0  0  0  0  0  0  0  0  0  0  0  0
  -88.9370   33.6241   -3.8852 N   0  0  0  0  0  0  0  0  0  0  0  0
  -89.3701   32.8463   -2.7650 C   0  0  0  0  0  0  0  0  0  0  0  0
  -89.6979   34.8137   -4.1234 C   0  0  0  0  0  0  0  0  0  0  0  0
  -88.7695   35.9555   -4.3066 C   0  0  0  0  0  0  0  0  0  0  0  0
  -88.1190   36.1268   -5.5330 C   0  0  0  0  0  0  0  0  0  0  0  0
  -87.2500   37.1696   -5.7683 C   0  0  0  0  0  0  0  0  0  0  0  0
  -86.9964   38.0890   -4.7773 C   0  0  0  0  0  0  0  0  0  0  0  0
  -85.8893   39.4045   -5.0995 Cl  0  0  0  0  0  0  0  0  0  0  0  0
  -87.6141   37.9555   -3.5624 C   0  0  0  0  0  0  0  0  0  0  0  0
  -88.4879   36.8952   -3.3459 C   0  0  0  0  0  0  0  0  0  0  0  0
 19 20  1  0  0  0
 20  1  1  0  0  0
  1  2  2  0  0  0
  2  3  1  0  0  0
  3  4  1  0  0  0
  3  5  2  0  0  0
  5  9  1  0  0  0
  9 10  2  0  0  0
  9 11  2  0  0  0
  9 12  1  0  0  0
 12 14  1  0  0  0
 14 15  2  0  0  0
 15 16  1  0  0  0
 16 17  1  0  0  0
 17 18  2  0  0  0
  5  6  1  0  0  0
  6  7  2  0  0  0
  7  8  1  0  0  0
 20 21  1  0  0  0
 21 22  1  0  0  0
 22 23  1  0  0  0
 23 24  1  0  0  0
 24 26  1  0  0  0
 26 27  1  0  0  0
 27 28  2  0  0  0
 28 29  1  0  0  0
 29 30  2  0  0  0
 30 31  1  0  0  0
 30 32  1  0  0  0
 32 33  2  0  0  0
 24 25  1  0  0  0
  7  1  1  0  0  0
 25 21  1  0  0  0
 18 14  1  0  0  0
 33 27  1  0  0  0
 12 13  1  0  0  0
M  END
> <minimizedAffinity>
-7.45281

> <CNNscore>
0.1080097705

> <CNNaffinity>
6.4852819443

> <CNN_VS>
0.7004737854

> <CNNaffinity_variance>
0.1267418414

$$$$
[H]c1nc(N([H])S(=O)(=O)c2c([H])c(Cl)c(N(C([H])([H])[H])[C@]3([H])C([H])([H])N(C([H])([H])c4c([H])c([H])c(Cl)c([H])c4[H])C([H])([H])C3([H])[H])c([H])c2F)c([H])s1


 33 36  0  0  0  0  0  0  0  0999 V2000
  -85.7582   31.6975    0.1519 C   0  0  0  0  0  0  0  0  0  0  0  0
  -87.0975   31.6267   -0.1663 C   0  0  0  0  0  0  0  0  0  0  0  0
  -87.6297   32.3419   -1.2150 C   0  0  0  0  0  0  0  0  0  0  0  0
  -88.9600   32.2626   -1.5199 F   0  0  0  0  0  0  0  0  0  0  0  0
  -86.8407   33.1767   -2.0116 C   0  0  0  0  0  0  0  0  0  0  0  0
  -85.5047   33.2406   -1.6868 C   0  0  0  0  0  0  0  0  0  0  0  0
  -84.9797   32.5210   -0.6344 C   0  0  0  0  0  0  0  0  0  0  0  0
  -83.2551   32.6317   -0.2488 Cl  0  0  0  0  0  0  0  0  0  0  0  0
  -87.5613   34.0450   -3.3493 S   0  0  0  0  0  0  0  0  0  0  0  0
  -88.7216   34.8293   -2.7644 O   0  0  0  0  0  0  0  0  0  0  0  0
  -88.1331   33.1190   -4.3684 O   0  0  0  0  0  0  0  0  0  0  0  0
  -86.5090   35.1769   -4.0737 N   0  0  0  0  0  0  0  0  0  0  0  0
  -85.4981   35.1100   -3.8314 H   0  0  0  0  0  0  0  0  0  0  0  0
  -86.9703   36.2073   -4.9962 C   0  0  0  0  0  0  0  0  0  0  0  0
  -86.9699   37.5348   -4.6321 C   0  0  0  0  0  0  0  0  0  0  0  0
  -87.5868   38.2767   -6.0397 S   0  0  0  0  0  0  0  0  0  0  0  0
  -87.8061   36.8791   -6.9941 C   0  0  0  0  0  0  0  0  0  0  0  0
  -87.3955   35.9194   -6.1848 N   0  0  0  0  0  0  0  0  0  0  0  0
  -84.8313   31.6613    2.4532 C   0  0  0  0  0  0  0  0  0  0  0  0
  -85.1800   30.9753    1.2238 N   0  0  0  0  0  0  0  0  0  0  0  0
  -84.9259   29.5752    1.1321 C   0  0  0  0  0  0  0  0  0  0  0  0
  -84.5069   28.9442    2.4442 C   0  0  0  0  0  0  0  0  0  0  0  0
  -84.7514   27.4716    2.1326 C   0  0  0  0  0  0  0  0  0  0  0  0
  -85.9451   27.4531    1.3488 N   0  0  0  0  0  0  0  0  0  0  0  0
  -86.1989   28.7672    0.8424 C   0  0  0  0  0  0  0  0  0  0  0  0
  -87.0163   26.8831    2.1095 C   0  0  0  0  0  0  0  0  0  0  0  0
  -88.1650   26.6203    1.2091 C   0  0  0  0  0  0  0  0  0  0  0  0
  -87.9916   25.7994    0.0899 C   0  0  0  0  0  0  0  0  0  0  0  0
  -89.0196   25.5120   -0.7810 C   0  0  0  0  0  0  0  0  0  0  0  0
  -90.2713   26.0391   -0.5639 C   0  0  0  0  0  0  0  0  0  0  0  0
  -91.5607   25.6600   -1.6834 Cl  0  0  0  0  0  0  0  0  0  0  0  0
  -90.4810   26.8477    0.5213 C   0  0  0  0  0  0  0  0  0  0  0  0
  -89.4293   27.1251    1.3882 C   0  0  0  0  0  0  0  0  0  0  0  0
 19 20  1  0  0  0
 20  1  1  0  0  0
  1  2  2  0  0  0
  2  3  1  0  0  0
  3  4  1  0  0  0
  3  5  2  0  0  0
  5  9  1  0  0  0
  9 10  2  0  0  0
  9 11  2  0  0  0
  9 12  1  0  0  0
 12 14  1  0  0  0
 14 15  2  0  0  0
 15 16  1  0  0  0
 16 17  1  0  0  0
 17 18  2  0  0  0
  5  6  1  0  0  0
  6  7  2  0  0  0
  7  8  1  0  0  0
 20 21  1  0  0  0
 21 22  1  0  0  0
 22 23  1  0  0  0
 23 24  1  0  0  0
 24 26  1  0  0  0
 26 27  1  0  0  0
 27 28  2  0  0  0
 28 29  1  0  0  0
 29 30  2  0  0  0
 30 31  1  0  0  0
 30 32  1  0  0  0
 32 33  2  0  0  0
 24 25  1  0  0  0
  7  1  1  0  0  0
 25 21  1  0  0  0
 18 14  1  0  0  0
 33 27  1  0  0  0
 12 13  1  0  0  0
M  END
> <minimizedAffinity>
-8.34744

> <CNNscore>
0.0920734107

> <CNNaffinity>
6.5365715027

> <CNN_VS>
0.6018444300

> <CNNaffinity_variance>
0.5719029307

$$$$
[H]c1nc(N([H])S(=O)(=O)c2c([H])c(Cl)c(N(C([H])([H])[H])[C@]3([H])C([H])([H])N(C([H])([H])c4c([H])c([H])c(Cl)c([H])c4[H])C([H])([H])C3([H])[H])c([H])c2F)c([H])s1


 33 36  0  0  0  0  0  0  0  0999 V2000
  -90.1654   28.3440   -0.8190 C   0  0  0  0  0  0  0  0  0  0  0  0
  -90.7418   29.5918   -0.9225 C   0  0  0  0  0  0  0  0  0  0  0  0
  -90.3705   30.4798   -1.9065 C   0  0  0  0  0  0  0  0  0  0  0  0
  -90.9502   31.7145   -1.9979 F   0  0  0  0  0  0  0  0  0  0  0  0
  -89.3905   30.1630   -2.8516 C   0  0  0  0  0  0  0  0  0  0  0  0
  -88.8211   28.9148   -2.7407 C   0  0  0  0  0  0  0  0  0  0  0  0
  -89.1986   28.0314   -1.7518 C   0  0  0  0  0  0  0  0  0  0  0  0
  -88.4406   26.4349   -1.6433 Cl  0  0  0  0  0  0  0  0  0  0  0  0
  -88.9727   31.3179   -4.0983 S   0  0  0  0  0  0  0  0  0  0  0  0
  -90.2306   31.5180   -4.9238 O   0  0  0  0  0  0  0  0  0  0  0  0
  -87.9286   30.7858   -5.0202 O   0  0  0  0  0  0  0  0  0  0  0  0
  -88.5274   32.8486   -3.4886 N   0  0  0  0  0  0  0  0  0  0  0  0
  -89.0275   33.6778   -3.8724 H   0  0  0  0  0  0  0  0  0  0  0  0
  -87.4953   33.0256   -2.4741 C   0  0  0  0  0  0  0  0  0  0  0  0
  -87.8001   32.9512   -1.1339 C   0  0  0  0  0  0  0  0  0  0  0  0
  -86.2744   33.2234   -0.4195 S   0  0  0  0  0  0  0  0  0  0  0  0
  -85.3523   33.4132   -1.8428 C   0  0  0  0  0  0  0  0  0  0  0  0
  -86.2610   33.2580   -2.7887 N   0  0  0  0  0  0  0  0  0  0  0  0
  -91.6504   26.5189   -0.0314 C   0  0  0  0  0  0  0  0  0  0  0  0
  -90.5244   27.4081    0.1811 N   0  0  0  0  0  0  0  0  0  0  0  0
  -89.8042   27.3104    1.4079 C   0  0  0  0  0  0  0  0  0  0  0  0
  -89.4810   25.8870    1.8135 C   0  0  0  0  0  0  0  0  0  0  0  0
  -88.3830   26.1358    2.8420 C   0  0  0  0  0  0  0  0  0  0  0  0
  -87.6228   27.2238    2.3148 N   0  0  0  0  0  0  0  0  0  0  0  0
  -88.3847   27.8857    1.3005 C   0  0  0  0  0  0  0  0  0  0  0  0
  -86.3357   26.7575    1.8939 C   0  0  0  0  0  0  0  0  0  0  0  0
  -85.4669   27.9244    1.6059 C   0  0  0  0  0  0  0  0  0  0  0  0
  -84.3493   28.1686    2.4108 C   0  0  0  0  0  0  0  0  0  0  0  0
  -83.5002   29.2313    2.1920 C   0  0  0  0  0  0  0  0  0  0  0  0
  -83.7385   30.0975    1.1506 C   0  0  0  0  0  0  0  0  0  0  0  0
  -82.6464   31.4395    0.8926 Cl  0  0  0  0  0  0  0  0  0  0  0  0
  -84.8228   29.8919    0.3399 C   0  0  0  0  0  0  0  0  0  0  0  0
  -85.6674   28.8128    0.5784 C   0  0  0  0  0  0  0  0  0  0  0  0
 19 20  1  0  0  0
 20  1  1  0  0  0
  1  2  2  0  0  0
  2  3  1  0  0  0
  3  4  1  0  0  0
  3  5  2  0  0  0
  5  9  1  0  0  0
  9 10  2  0  0  0
  9 11  2  0  0  0
  9 12  1  0  0  0
 12 14  1  0  0  0
 14 15  2  0  0  0
 15 16  1  0  0  0
 16 17  1  0  0  0
 17 18  2  0  0  0
  5  6  1  0  0  0
  6  7  2  0  0  0
  7  8  1  0  0  0
 20 21  1  0  0  0
 21 22  1  0  0  0
 22 23  1  0  0  0
 23 24  1  0  0  0
 24 26  1  0  0  0
 26 27  1  0  0  0
 27 28  2  0  0  0
 28 29  1  0  0  0
 29 30  2  0  0  0
 30 31  1  0  0  0
 30 32  1  0  0  0
 32 33  2  0  0  0
 24 25  1  0  0  0
  7  1  1  0  0  0
 25 21  1  0  0  0
 18 14  1  0  0  0
 33 27  1  0  0  0
 12 13  1  0  0  0
M  END
> <minimizedAffinity>
-8.68966

> <CNNscore>
0.0839374214

> <CNNaffinity>
6.7163710594

> <CNN_VS>
0.5637548566

> <CNNaffinity_variance>
0.5502994061

$$$$
[H]OC1([H])C([H])([H])OC([H])([H])C([H])([H])C1(c1c([H])c([H])c(C(F)(F)F)c([H])c1F)N([H])C(=O)c1c([H])nn2c([H])c(C([H])([H])[H])c([H])nc12


 33 36  0  0  0  0  0  0  0  0999 V2000
  -88.3619   32.9918   -3.1998 C   0  0  0  0  0  0  0  0  0  0  0  0
  -89.1783   32.2688   -2.2948 C   0  0  0  0  0  0  0  0  0  0  0  0
  -90.4697   31.6360   -2.7907 C   0  0  0  0  0  0  0  0  0  0  0  0
  -90.7769   31.7393   -4.0972 O   0  0  0  0  0  0  0  0  0  0  0  0
  -89.7447   31.7579   -4.9551 C   0  0  0  0  0  0  0  0  0  0  0  0
  -88.4543   32.3333   -4.5998 C   0  0  0  0  0  0  0  0  0  0  0  0
  -87.4756   31.3272   -4.7319 O   0  0  0  0  0  0  0  0  0  0  0  0
  -87.0231   31.3740   -5.5823 H   0  0  0  0  0  0  0  0  0  0  0  0
  -88.4083   34.4201   -3.4635 C   0  0  0  0  0  0  0  0  0  0  0  0
  -87.1753   35.0270   -3.7601 C   0  0  0  0  0  0  0  0  0  0  0  0
  -87.0669   36.3366   -4.1672 C   0  0  0  0  0  0  0  0  0  0  0  0
  -88.1504   37.1387   -4.3098 C   0  0  0  0  0  0  0  0  0  0  0  0
  -89.3941   36.5716   -4.0253 C   0  0  0  0  0  0  0  0  0  0  0  0
  -89.4666   35.2505   -3.6196 C   0  0  0  0  0  0  0  0  0  0  0  0
  -90.6851   34.7912   -3.3285 F   0  0  0  0  0  0  0  0  0  0  0  0
  -88.0415   38.5367   -4.7865 C   0  0  0  0  0  0  0  0  0  0  0  0
  -87.8770   39.4122   -3.7065 F   0  0  0  0  0  0  0  0  0  0  0  0
  -86.9761   38.6193   -5.6522 F   0  0  0  0  0  0  0  0  0  0  0  0
  -89.1353   38.9359   -5.5510 F   0  0  0  0  0  0  0  0  0  0  0  0
  -86.5991   32.8509   -1.4802 C   0  0  0  0  0  0  0  0  0  0  0  0
  -87.5124   33.0724   -0.6334 O   0  0  0  0  0  0  0  0  0  0  0  0
  -86.9139   32.7634   -2.8847 N   0  0  0  0  0  0  0  0  0  0  0  0
  -86.1832   32.5790   -3.5499 H   0  0  0  0  0  0  0  0  0  0  0  0
  -82.7609   28.7992    2.2284 C   0  0  0  0  0  0  0  0  0  0  0  0
  -83.4900   29.8003    1.3713 C   0  0  0  0  0  0  0  0  0  0  0  0
  -84.7726   29.5750    0.9225 C   0  0  0  0  0  0  0  0  0  0  0  0
  -85.4088   30.4846    0.1605 N   0  0  0  0  0  0  0  0  0  0  0  0
  -84.8006   31.6266   -0.1719 C   0  0  0  0  0  0  0  0  0  0  0  0
  -85.2790   32.7135   -0.9213 C   0  0  0  0  0  0  0  0  0  0  0  0
  -84.2380   33.5922   -0.9198 C   0  0  0  0  0  0  0  0  0  0  0  0
  -83.2163   33.0613   -0.2144 N   0  0  0  0  0  0  0  0  0  0  0  0
  -83.5647   31.8665    0.2435 N   0  0  0  0  0  0  0  0  0  0  0  0
  -82.8675   30.9925    1.0124 C   0  0  0  0  0  0  0  0  0  0  0  0
 24 25  1  0  0  0
 25 26  1  0  0  0
 26 27  2  0  0  0
 27 28  1  0  0  0
 28 29  2  0  0  0
 29 20  1  0  0  0
 20 21  2  0  0  0
 20 22  1  0  0  0
 22  1  1  0  0  0
  1  9  1  0  0  0
  9 10  2  0  0  0
 10 11  1  0  0  0
 11 12  2  0  0  0
 12 16  1  0  0  0
 16 17  1  0  0  0
 16 18  1  0  0  0
 16 19  1  0  0  0
 12 13  1  0  0  0
 13 14  2  0  0  0
 14 15  1  0  0  0
  1  2  1  0  0  0
  2  3  1  0  0  0
  3  4  1  0  0  0
  4  5  1  0  0  0
  5  6  1  0  0  0
  6  7  1  0  0  0
 29 30  1  0  0  0
 30 31  2  0  0  0
 31 32  1  0  0  0
 32 33  1  0  0  0
 33 25  2  0  0  0
 32 28  1  0  0  0
  6  1  1  0  0  0
 14  9  1  0  0  0
 22 23  1  0  0  0
  7  8  1  0  0  0
M  END
> <minimizedAffinity>
-8.89288

> <CNNscore>
0.7868018150

> <CNNaffinity>
6.8259725571

> <CNN_VS>
5.3706874847

> <CNNaffinity_variance>
0.3582458794

$$$$
[H]OC1([H])C([H])([H])OC([H])([H])C([H])([H])C1(c1c([H])c([H])c(C(F)(F)F)c([H])c1F)N([H])C(=O)c1c([H])nn2c([H])c(C([H])([H])[H])c([H])nc12


 33 36  0  0  0  0  0  0  0  0999 V2000
  -89.7619   33.1415   -3.8267 C   0  0  0  0  0  0  0  0  0  0  0  0
  -90.9928   32.5162   -3.5068 C   0  0  0  0  0  0  0  0  0  0  0  0
  -92.0982   32.4582   -4.5502 C   0  0  0  0  0  0  0  0  0  0  0  0
  -91.8549   32.9622   -5.7745 O   0  0  0  0  0  0  0  0  0  0  0  0
  -90.5940   32.8613   -6.2236 C   0  0  0  0  0  0  0  0  0  0  0  0
  -89.4477   32.9006   -5.3251 C   0  0  0  0  0  0  0  0  0  0  0  0
  -88.7248   31.7010   -5.4859 O   0  0  0  0  0  0  0  0  0  0  0  0
  -87.9831   31.8058   -6.0932 H   0  0  0  0  0  0  0  0  0  0  0  0
  -89.4064   34.5317   -3.5972 C   0  0  0  0  0  0  0  0  0  0  0  0
  -88.0655   34.7698   -3.2479 C   0  0  0  0  0  0  0  0  0  0  0  0
  -87.5375   36.0350   -3.1335 C   0  0  0  0  0  0  0  0  0  0  0  0
  -88.2806   37.1479   -3.3497 C   0  0  0  0  0  0  0  0  0  0  0  0
  -89.6180   36.9527   -3.7000 C   0  0  0  0  0  0  0  0  0  0  0  0
  -90.1157   35.6660   -3.8077 C   0  0  0  0  0  0  0  0  0  0  0  0
  -91.4116   35.5605   -4.1077 F   0  0  0  0  0  0  0  0  0  0  0  0
  -87.7057   38.5104   -3.2670 C   0  0  0  0  0  0  0  0  0  0  0  0
  -88.5644   39.4424   -3.8618 F   0  0  0  0  0  0  0  0  0  0  0  0
  -87.4940   38.8134   -1.9422 F   0  0  0  0  0  0  0  0  0  0  0  0
  -86.4417   38.6019   -3.8450 F   0  0  0  0  0  0  0  0  0  0  0  0
  -88.9147   31.9197   -1.8585 C   0  0  0  0  0  0  0  0  0  0  0  0
  -90.0555   32.1072   -1.3450 O   0  0  0  0  0  0  0  0  0  0  0  0
  -88.6254   32.4024   -3.1863 N   0  0  0  0  0  0  0  0  0  0  0  0
  -87.7188   32.2419   -3.5897 H   0  0  0  0  0  0  0  0  0  0  0  0
  -82.6602   32.1487    0.5355 C   0  0  0  0  0  0  0  0  0  0  0  0
  -84.0891   31.9685    0.0947 C   0  0  0  0  0  0  0  0  0  0  0  0
  -84.7360   32.9096   -0.6755 C   0  0  0  0  0  0  0  0  0  0  0  0
  -86.0126   32.7278   -1.0627 N   0  0  0  0  0  0  0  0  0  0  0  0
  -86.6734   31.6237   -0.7034 C   0  0  0  0  0  0  0  0  0  0  0  0
  -87.9814   31.2188   -1.0148 C   0  0  0  0  0  0  0  0  0  0  0  0
  -88.1038   30.0117   -0.3957 C   0  0  0  0  0  0  0  0  0  0  0  0
  -86.9453   29.7224    0.2351 N   0  0  0  0  0  0  0  0  0  0  0  0
  -86.0753   30.7042    0.0411 N   0  0  0  0  0  0  0  0  0  0  0  0
  -84.7923   30.8258    0.4655 C   0  0  0  0  0  0  0  0  0  0  0  0
 24 25  1  0  0  0
 25 26  1  0  0  0
 26 27  2  0  0  0
 27 28  1  0  0  0
 28 29  2  0  0  0
 29 20  1  0  0  0
 20 21  2  0  0  0
 20 22  1  0  0  0
 22  1  1  0  0  0
  1  9  1  0  0  0
  9 10  2  0  0  0
 10 11  1  0  0  0
 11 12  2  0  0  0
 12 16  1  0  0  0
 16 17  1  0  0  0
 16 18  1  0  0  0
 16 19  1  0  0  0
 12 13  1  0  0  0
 13 14  2  0  0  0
 14 15  1  0  0  0
  1  2  1  0  0  0
  2  3  1  0  0  0
  3  4  1  0  0  0
  4  5  1  0  0  0
  5  6  1  0  0  0
  6  7  1  0  0  0
 29 30  1  0  0  0
 30 31  2  0  0  0
 31 32  1  0  0  0
 32 33  1  0  0  0
 33 25  2  0  0  0
 32 28  1  0  0  0
  6  1  1  0  0  0
 14  9  1  0  0  0
 22 23  1  0  0  0
  7  8  1  0  0  0
M  END
> <minimizedAffinity>
-7.92607

> <CNNscore>
0.3074232936

> <CNNaffinity>
6.2078208923

> <CNN_VS>
1.9084287882

> <CNNaffinity_variance>
0.2569271922

$$$$
[H]OC1([H])C([H])([H])OC([H])([H])C([H])([H])C1(c1c([H])c([H])c(C(F)(F)F)c([H])c1F)N([H])C(=O)c1c([H])nn2c([H])c(C([H])([H])[H])c([H])nc12


 33 36  0  0  0  0  0  0  0  0999 V2000
  -90.2971   27.9166   -1.0231 C   0  0  0  0  0  0  0  0  0  0  0  0
  -89.8588   27.2757   -2.2086 C   0  0  0  0  0  0  0  0  0  0  0  0
  -90.7956   26.3240   -2.9371 C   0  0  0  0  0  0  0  0  0  0  0  0
  -92.0422   26.1555   -2.4581 O   0  0  0  0  0  0  0  0  0  0  0  0
  -92.6043   27.2200   -1.8643 C   0  0  0  0  0  0  0  0  0  0  0  0
  -91.8155   28.2058   -1.1373 C   0  0  0  0  0  0  0  0  0  0  0  0
  -92.0294   29.4643   -1.7355 O   0  0  0  0  0  0  0  0  0  0  0  0
  -92.7034   29.9743   -1.2710 H   0  0  0  0  0  0  0  0  0  0  0  0
  -90.1160   27.4448    0.3393 C   0  0  0  0  0  0  0  0  0  0  0  0
  -90.6763   28.2518    1.3450 C   0  0  0  0  0  0  0  0  0  0  0  0
  -90.7134   27.8773    2.6682 C   0  0  0  0  0  0  0  0  0  0  0  0
  -90.2063   26.6954    3.0968 C   0  0  0  0  0  0  0  0  0  0  0  0
  -89.6416   25.8649    2.1269 C   0  0  0  0  0  0  0  0  0  0  0  0
  -89.6226   26.2725    0.8047 C   0  0  0  0  0  0  0  0  0  0  0  0
  -89.0317   25.4431   -0.0575 F   0  0  0  0  0  0  0  0  0  0  0  0
  -90.2804   26.2710    4.5139 C   0  0  0  0  0  0  0  0  0  0  0  0
  -90.3108   27.3864    5.3593 F   0  0  0  0  0  0  0  0  0  0  0  0
  -91.4069   25.4994    4.6785 F   0  0  0  0  0  0  0  0  0  0  0  0
  -89.2331   25.4307    4.8841 F   0  0  0  0  0  0  0  0  0  0  0  0
  -88.3210   29.3918   -1.0785 C   0  0  0  0  0  0  0  0  0  0  0  0
  -87.6358   28.3421   -1.2487 O   0  0  0  0  0  0  0  0  0  0  0  0
  -89.7561   29.3136   -0.9610 N   0  0  0  0  0  0  0  0  0  0  0  0
  -90.2935   30.1536   -0.8340 H   0  0  0  0  0  0  0  0  0  0  0  0
  -82.4929   31.9164    1.0574 C   0  0  0  0  0  0  0  0  0  0  0  0
  -83.8313   31.4947    0.5100 C   0  0  0  0  0  0  0  0  0  0  0  0
  -84.2415   30.1799    0.5270 C   0  0  0  0  0  0  0  0  0  0  0  0
  -85.4438   29.8239    0.0364 N   0  0  0  0  0  0  0  0  0  0  0  0
  -86.2612   30.7480   -0.4761 C   0  0  0  0  0  0  0  0  0  0  0  0
  -87.5533   30.6082   -1.0076 C   0  0  0  0  0  0  0  0  0  0  0  0
  -87.8999   31.8784   -1.3569 C   0  0  0  0  0  0  0  0  0  0  0  0
  -86.8828   32.7115   -1.0489 N   0  0  0  0  0  0  0  0  0  0  0  0
  -85.8888   32.0200   -0.5082 N   0  0  0  0  0  0  0  0  0  0  0  0
  -84.6917   32.4453   -0.0318 C   0  0  0  0  0  0  0  0  0  0  0  0
 24 25  1  0  0  0
 25 26  1  0  0  0
 26 27  2  0  0  0
 27 28  1  0  0  0
 28 29  2  0  0  0
 29 20  1  0  0  0
 20 21  2  0  0  0
 20 22  1  0  0  0
 22  1  1  0  0  0
  1  9  1  0  0  0
  9 10  2  0  0  0
 10 11  1  0  0  0
 11 12  2  0  0  0
 12 16  1  0  0  0
 16 17  1  0  0  0
 16 18  1  0  0  0
 16 19  1  0  0  0
 12 13  1  0  0  0
 13 14  2  0  0  0
 14 15  1  0  0  0
  1  2  1  0  0  0
  2  3  1  0  0  0
  3  4  1  0  0  0
  4  5  1  0  0  0
  5  6  1  0  0  0
  6  7  1  0  0  0
 29 30  1  0  0  0
 30 31  2  0  0  0
 31 32  1  0  0  0
 32 33  1  0  0  0
 33 25  2  0  0  0
 32 28  1  0  0  0
  6  1  1  0  0  0
 14  9  1  0  0  0
 22 23  1  0  0  0
  7  8  1  0  0  0
M  END
> <minimizedAffinity>
-8.72806

> <CNNscore>
0.2579595447

> <CNNaffinity>
6.2160406113

> <CNN_VS>
1.6034870148

> <CNNaffinity_variance>
0.1611261815

$$$$
[H]OC1([H])C([H])([H])OC([H])([H])C([H])([H])C1(c1c([H])c([H])c(C(F)(F)F)c([H])c1F)N([H])C(=O)c1c([H])nn2c([H])c(C([H])([H])[H])c([H])nc12


 33 36  0  0  0  0  0  0  0  0999 V2000
  -89.6419   27.0231   -0.9670 C   0  0  0  0  0  0  0  0  0  0  0  0
  -90.4911   26.6330    0.0983 C   0  0  0  0  0  0  0  0  0  0  0  0
  -91.7741   25.8738   -0.2046 C   0  0  0  0  0  0  0  0  0  0  0  0
  -92.0425   25.5476   -1.4827 O   0  0  0  0  0  0  0  0  0  0  0  0
  -90.9860   25.2866   -2.2684 C   0  0  0  0  0  0  0  0  0  0  0  0
  -89.7006   25.9459   -2.0798 C   0  0  0  0  0  0  0  0  0  0  0  0
  -88.7287   24.9512   -1.8486 O   0  0  0  0  0  0  0  0  0  0  0  0
  -88.2515   24.7195   -2.6539 H   0  0  0  0  0  0  0  0  0  0  0  0
  -89.6663   28.2885   -1.6809 C   0  0  0  0  0  0  0  0  0  0  0  0
  -88.4894   28.6218   -2.3740 C   0  0  0  0  0  0  0  0  0  0  0  0
  -88.3979   29.7120   -3.2082 C   0  0  0  0  0  0  0  0  0  0  0  0
  -89.4444   30.5473   -3.4193 C   0  0  0  0  0  0  0  0  0  0  0  0
  -90.6322   30.2489   -2.7489 C   0  0  0  0  0  0  0  0  0  0  0  0
  -90.6895   29.1434   -1.9186 C   0  0  0  0  0  0  0  0  0  0  0  0
  -91.8457   28.9455   -1.2825 F   0  0  0  0  0  0  0  0  0  0  0  0
  -89.3619   31.6985   -4.3476 C   0  0  0  0  0  0  0  0  0  0  0  0
  -90.6232   31.9911   -4.8799 F   0  0  0  0  0  0  0  0  0  0  0  0
  -88.8573   32.7770   -3.6593 F   0  0  0  0  0  0  0  0  0  0  0  0
  -88.4516   31.4968   -5.3824 F   0  0  0  0  0  0  0  0  0  0  0  0
  -87.8910   27.6147    0.6666 C   0  0  0  0  0  0  0  0  0  0  0  0
  -88.7958   28.2317    1.2998 O   0  0  0  0  0  0  0  0  0  0  0  0
  -88.2059   26.9091   -0.5509 N   0  0  0  0  0  0  0  0  0  0  0  0
  -87.4823   26.4147   -1.0433 H   0  0  0  0  0  0  0  0  0  0  0  0
  -82.4565   31.5127    1.0844 C   0  0  0  0  0  0  0  0  0  0  0  0
  -83.6067   30.5403    1.1011 C   0  0  0  0  0  0  0  0  0  0  0  0
  -84.8026   30.8189    0.4770 C   0  0  0  0  0  0  0  0  0  0  0  0
  -85.8174   29.9344    0.4999 N   0  0  0  0  0  0  0  0  0  0  0  0
  -85.6766   28.7658    1.1320 C   0  0  0  0  0  0  0  0  0  0  0  0
  -86.5793   27.6975    1.2556 C   0  0  0  0  0  0  0  0  0  0  0  0
  -85.8926   26.7748    1.9854 C   0  0  0  0  0  0  0  0  0  0  0  0
  -84.6666   27.2641    2.2698 N   0  0  0  0  0  0  0  0  0  0  0  0
  -84.5372   28.4747    1.7441 N   0  0  0  0  0  0  0  0  0  0  0  0
  -83.4768   29.3210    1.7599 C   0  0  0  0  0  0  0  0  0  0  0  0
 24 25  1  0  0  0
 25 26  1  0  0  0
 26 27  2  0  0  0
 27 28  1  0  0  0
 28 29  2  0  0  0
 29 20  1  0  0  0
 20 21  2  0  0  0
 20 22  1  0  0  0
 22  1  1  0  0  0
  1  9  1  0  0  0
  9 10  2  0  0  0
 10 11  1  0  0  0
 11 12  2  0  0  0
 12 16  1  0  0  0
 16 17  1  0  0  0
 16 18  1  0  0  0
 16 19  1  0  0  0
 12 13  1  0  0  0
 13 14  2  0  0  0
 14 15  1  0  0  0
  1  2  1  0  0  0
  2  3  1  0  0  0
  3  4  1  0  0  0
  4  5  1  0  0  0
  5  6  1  0  0  0
  6  7  1  0  0  0
 29 30  1  0  0  0
 30 31  2  0  0  0
 31 32  1  0  0  0
 32 33  1  0  0  0
 33 25  2  0  0  0
 32 28  1  0  0  0
  6  1  1  0  0  0
 14  9  1  0  0  0
 22 23  1  0  0  0
  7  8  1  0  0  0
M  END
> <minimizedAffinity>
-9.01339

> <CNNscore>
0.2169241756

> <CNNaffinity>
6.1900587082

> <CNN_VS>
1.3427734375

> <CNNaffinity_variance>
0.2518381476

$$$$
[H]OC1([H])C([H])([H])OC([H])([H])C([H])([H])C1(c1c([H])c([H])c(C(F)(F)F)c([H])c1F)N([H])C(=O)c1c([H])nn2c([H])c(C([H])([H])[H])c([H])nc12


 33 36  0  0  0  0  0  0  0  0999 V2000
  -89.9797   27.9968   -0.8323 C   0  0  0  0  0  0  0  0  0  0  0  0
  -89.4609   27.2939   -1.9481 C   0  0  0  0  0  0  0  0  0  0  0  0
  -90.3296   26.2661   -2.6573 C   0  0  0  0  0  0  0  0  0  0  0  0
  -91.5944   26.0888   -2.2319 O   0  0  0  0  0  0  0  0  0  0  0  0
  -92.2179   27.1712   -1.7406 C   0  0  0  0  0  0  0  0  0  0  0  0
  -91.4978   28.2280   -1.0426 C   0  0  0  0  0  0  0  0  0  0  0  0
  -91.7165   29.4367   -1.7345 O   0  0  0  0  0  0  0  0  0  0  0  0
  -92.4287   29.9538   -1.3403 H   0  0  0  0  0  0  0  0  0  0  0  0
  -89.8570   27.6219    0.5663 C   0  0  0  0  0  0  0  0  0  0  0  0
  -90.6489   28.3554    1.4671 C   0  0  0  0  0  0  0  0  0  0  0  0
  -90.7530   28.0352    2.8010 C   0  0  0  0  0  0  0  0  0  0  0  0
  -90.0923   26.9827    3.3429 C   0  0  0  0  0  0  0  0  0  0  0  0
  -89.2957   26.2284    2.4793 C   0  0  0  0  0  0  0  0  0  0  0  0
  -89.2152   26.5780    1.1428 C   0  0  0  0  0  0  0  0  0  0  0  0
  -88.4039   25.8339    0.3887 F   0  0  0  0  0  0  0  0  0  0  0  0
  -90.2335   26.6107    4.7696 C   0  0  0  0  0  0  0  0  0  0  0  0
  -90.0469   27.7300    5.5894 F   0  0  0  0  0  0  0  0  0  0  0  0
  -91.4835   26.0684    4.9560 F   0  0  0  0  0  0  0  0  0  0  0  0
  -89.3597   25.5967    5.1548 F   0  0  0  0  0  0  0  0  0  0  0  0
  -88.0467   29.5288   -0.8530 C   0  0  0  0  0  0  0  0  0  0  0  0
  -87.3217   28.4928   -0.8906 O   0  0  0  0  0  0  0  0  0  0  0  0
  -89.4839   29.4118   -0.8372 N   0  0  0  0  0  0  0  0  0  0  0  0
  -90.0524   30.2405   -0.8154 H   0  0  0  0  0  0  0  0  0  0  0  0
  -87.9199   35.7169   -3.4209 C   0  0  0  0  0  0  0  0  0  0  0  0
  -87.8270   34.3736   -2.7459 C   0  0  0  0  0  0  0  0  0  0  0  0
  -88.7742   33.3935   -2.9448 C   0  0  0  0  0  0  0  0  0  0  0  0
  -88.6707   32.1975   -2.3351 N   0  0  0  0  0  0  0  0  0  0  0  0
  -87.6399   31.9432   -1.5243 C   0  0  0  0  0  0  0  0  0  0  0  0
  -87.3206   30.7721   -0.8185 C   0  0  0  0  0  0  0  0  0  0  0  0
  -86.1593   31.0849   -0.1787 C   0  0  0  0  0  0  0  0  0  0  0  0
  -85.8151   32.3532   -0.4891 N   0  0  0  0  0  0  0  0  0  0  0  0
  -86.7166   32.8706   -1.3126 N   0  0  0  0  0  0  0  0  0  0  0  0
  -86.7616   34.0956   -1.8943 C   0  0  0  0  0  0  0  0  0  0  0  0
 24 25  1  0  0  0
 25 26  1  0  0  0
 26 27  2  0  0  0
 27 28  1  0  0  0
 28 29  2  0  0  0
 29 20  1  0  0  0
 20 21  2  0  0  0
 20 22  1  0  0  0
 22  1  1  0  0  0
  1  9  1  0  0  0
  9 10  2  0  0  0
 10 11  1  0  0  0
 11 12  2  0  0  0
 12 16  1  0  0  0
 16 17  1  0  0  0
 16 18  1  0  0  0
 16 19  1  0  0  0
 12 13  1  0  0  0
 13 14  2  0  0  0
 14 15  1  0  0  0
  1  2  1  0  0  0
  2  3  1  0  0  0
  3  4  1  0  0  0
  4  5  1  0  0  0
  5  6  1  0  0  0
  6  7  1  0  0  0
 29 30  1  0  0  0
 30 31  2  0  0  0
 31 32  1  0  0  0
 32 33  1  0  0  0
 33 25  2  0  0  0
 32 28  1  0  0  0
  6  1  1  0  0  0
 14  9  1  0  0  0
 22 23  1  0  0  0
  7  8  1  0  0  0
M  END
> <minimizedAffinity>
-8.53171

> <CNNscore>
0.1666935682

> <CNNaffinity>
6.0124979019

> <CNN_VS>
1.0022447109

> <CNNaffinity_variance>
0.2400033772

$$$$
[H]OC1([H])C([H])([H])OC([H])([H])C([H])([H])C1(c1c([H])c([H])c(C(F)(F)F)c([H])c1F)N([H])C(=O)c1c([H])nn2c([H])c(C([H])([H])[H])c([H])nc12


 33 36  0  0  0  0  0  0  0  0999 V2000
  -89.1412   26.5652    2.8160 C   0  0  0  0  0  0  0  0  0  0  0  0
  -89.5504   27.4835    3.8148 C   0  0  0  0  0  0  0  0  0  0  0  0
  -90.6992   27.1195    4.7432 C   0  0  0  0  0  0  0  0  0  0  0  0
  -91.2655   25.9044    4.6207 O   0  0  0  0  0  0  0  0  0  0  0  0
  -90.4575   24.9033    4.2377 C   0  0  0  0  0  0  0  0  0  0  0  0
  -89.3213   25.1224    3.3525 C   0  0  0  0  0  0  0  0  0  0  0  0
  -88.1557   24.7022    4.0250 O   0  0  0  0  0  0  0  0  0  0  0  0
  -87.9019   23.8047    3.7800 H   0  0  0  0  0  0  0  0  0  0  0  0
  -89.6117   26.5063    1.4424 C   0  0  0  0  0  0  0  0  0  0  0  0
  -89.2044   25.3808    0.7048 C   0  0  0  0  0  0  0  0  0  0  0  0
  -89.6748   25.1064   -0.5585 C   0  0  0  0  0  0  0  0  0  0  0  0
  -90.5693   25.9099   -1.1845 C   0  0  0  0  0  0  0  0  0  0  0  0
  -90.9991   27.0382   -0.4834 C   0  0  0  0  0  0  0  0  0  0  0  0
  -90.5064   27.2829    0.7864 C   0  0  0  0  0  0  0  0  0  0  0  0
  -90.9338   28.4005    1.3771 F   0  0  0  0  0  0  0  0  0  0  0  0
  -91.1084   25.5964   -2.5279 C   0  0  0  0  0  0  0  0  0  0  0  0
  -91.0612   24.2178   -2.7663 F   0  0  0  0  0  0  0  0  0  0  0  0
  -92.4003   26.0629   -2.5979 F   0  0  0  0  0  0  0  0  0  0  0  0
  -90.4451   26.2717   -3.5498 F   0  0  0  0  0  0  0  0  0  0  0  0
  -87.1316   27.9328    2.3969 C   0  0  0  0  0  0  0  0  0  0  0  0
  -87.9098   28.9295    2.3597 O   0  0  0  0  0  0  0  0  0  0  0  0
  -87.6517   26.6120    2.6506 N   0  0  0  0  0  0  0  0  0  0  0  0
  -87.0251   25.8268    2.6865 H   0  0  0  0  0  0  0  0  0  0  0  0
  -83.0595   32.5518   -0.2460 C   0  0  0  0  0  0  0  0  0  0  0  0
  -83.8403   31.4375    0.4000 C   0  0  0  0  0  0  0  0  0  0  0  0
  -85.2087   31.4985    0.5452 C   0  0  0  0  0  0  0  0  0  0  0  0
  -85.8889   30.4898    1.1219 N   0  0  0  0  0  0  0  0  0  0  0  0
  -85.2411   29.4079    1.5631 C   0  0  0  0  0  0  0  0  0  0  0  0
  -85.7449   28.2412    2.1604 C   0  0  0  0  0  0  0  0  0  0  0  0
  -84.6343   27.4842    2.3818 C   0  0  0  0  0  0  0  0  0  0  0  0
  -83.5494   28.1570    1.9415 N   0  0  0  0  0  0  0  0  0  0  0  0
  -83.9237   29.3258    1.4392 N   0  0  0  0  0  0  0  0  0  0  0  0
  -83.1788   30.3062    0.8693 C   0  0  0  0  0  0  0  0  0  0  0  0
 24 25  1  0  0  0
 25 26  1  0  0  0
 26 27  2  0  0  0
 27 28  1  0  0  0
 28 29  2  0  0  0
 29 20  1  0  0  0
 20 21  2  0  0  0
 20 22  1  0  0  0
 22  1  1  0  0  0
  1  9  1  0  0  0
  9 10  2  0  0  0
 10 11  1  0  0  0
 11 12  2  0  0  0
 12 16  1  0  0  0
 16 17  1  0  0  0
 16 18  1  0  0  0
 16 19  1  0  0  0
 12 13  1  0  0  0
 13 14  2  0  0  0
 14 15  1  0  0  0
  1  2  1  0  0  0
  2  3  1  0  0  0
  3  4  1  0  0  0
  4  5  1  0  0  0
  5  6  1  0  0  0
  6  7  1  0  0  0
 29 30  1  0  0  0
 30 31  2  0  0  0
 31 32  1  0  0  0
 32 33  1  0  0  0
 33 25  2  0  0  0
 32 28  1  0  0  0
  6  1  1  0  0  0
 14  9  1  0  0  0
 22 23  1  0  0  0
  7  8  1  0  0  0
M  END
> <minimizedAffinity>
-7.94262

> <CNNscore>
0.1483930796

> <CNNaffinity>
6.0112314224

> <CNN_VS>
0.8920251727

> <CNNaffinity_variance>
0.1382996142

$$$$
[H]OC1([H])C([H])([H])OC([H])([H])C([H])([H])C1(c1c([H])c([H])c(C(F)(F)F)c([H])c1F)N([H])C(=O)c1c([H])nn2c([H])c(C([H])([H])[H])c([H])nc12


 33 36  0  0  0  0  0  0  0  0999 V2000
  -89.3778   26.7678    0.5123 C   0  0  0  0  0  0  0  0  0  0  0  0
  -89.6513   26.6704    1.8994 C   0  0  0  0  0  0  0  0  0  0  0  0
  -90.4467   25.4852    2.4257 C   0  0  0  0  0  0  0  0  0  0  0  0
  -90.8276   24.5293    1.5579 O   0  0  0  0  0  0  0  0  0  0  0  0
  -90.0008   24.2924    0.5274 C   0  0  0  0  0  0  0  0  0  0  0  0
  -89.1834   25.3428   -0.0652 C   0  0  0  0  0  0  0  0  0  0  0  0
  -87.8319   24.9548    0.0362 O   0  0  0  0  0  0  0  0  0  0  0  0
  -87.5132   24.5428   -0.7754 H   0  0  0  0  0  0  0  0  0  0  0  0
  -90.1748   27.4614   -0.4853 C   0  0  0  0  0  0  0  0  0  0  0  0
  -91.0958   28.3997    0.0128 C   0  0  0  0  0  0  0  0  0  0  0  0
  -91.8238   29.2358   -0.8018 C   0  0  0  0  0  0  0  0  0  0  0  0
  -91.7032   29.2107   -2.1519 C   0  0  0  0  0  0  0  0  0  0  0  0
  -90.7970   28.2923   -2.6852 C   0  0  0  0  0  0  0  0  0  0  0  0
  -90.0800   27.4675   -1.8363 C   0  0  0  0  0  0  0  0  0  0  0  0
  -89.2629   26.5897   -2.4214 F   0  0  0  0  0  0  0  0  0  0  0  0
  -92.4553   30.1367   -3.0297 C   0  0  0  0  0  0  0  0  0  0  0  0
  -92.2286   31.4652   -2.6507 F   0  0  0  0  0  0  0  0  0  0  0  0
  -92.0589   29.9224   -4.3292 F   0  0  0  0  0  0  0  0  0  0  0  0
  -93.8243   29.8801   -3.0429 F   0  0  0  0  0  0  0  0  0  0  0  0
  -87.3771   27.8205    1.4987 C   0  0  0  0  0  0  0  0  0  0  0  0
  -87.9626   27.7120    2.6148 O   0  0  0  0  0  0  0  0  0  0  0  0
  -88.0093   27.3405    0.2948 N   0  0  0  0  0  0  0  0  0  0  0  0
  -87.5334   27.4235   -0.5866 H   0  0  0  0  0  0  0  0  0  0  0  0
  -83.9583   33.1959   -0.5798 C   0  0  0  0  0  0  0  0  0  0  0  0
  -84.5952   31.9490   -0.0244 C   0  0  0  0  0  0  0  0  0  0  0  0
  -85.9338   31.6767   -0.2006 C   0  0  0  0  0  0  0  0  0  0  0  0
  -86.4833   30.5543    0.3004 N   0  0  0  0  0  0  0  0  0  0  0  0
  -85.7318   29.6828    0.9790 C   0  0  0  0  0  0  0  0  0  0  0  0
  -86.0837   28.4516    1.5551 C   0  0  0  0  0  0  0  0  0  0  0  0
  -84.9172   28.0003    2.0947 C   0  0  0  0  0  0  0  0  0  0  0  0
  -83.9425   28.9022    1.8501 N   0  0  0  0  0  0  0  0  0  0  0  0
  -84.4415   29.9229    1.1662 N   0  0  0  0  0  0  0  0  0  0  0  0
  -83.8261   31.0341    0.6892 C   0  0  0  0  0  0  0  0  0  0  0  0
 24 25  1  0  0  0
 25 26  1  0  0  0
 26 27  2  0  0  0
 27 28  1  0  0  0
 28 29  2  0  0  0
 29 20  1  0  0  0
 20 21  2  0  0  0
 20 22  1  0  0  0
 22  1  1  0  0  0
  1  9  1  0  0  0
  9 10  2  0  0  0
 10 11  1  0  0  0
 11 12  2  0  0  0
 12 16  1  0  0  0
 16 17  1  0  0  0
 16 18  1  0  0  0
 16 19  1  0  0  0
 12 13  1  0  0  0
 13 14  2  0  0  0
 14 15  1  0  0  0
  1  2  1  0  0  0
  2  3  1  0  0  0
  3  4  1  0  0  0
  4  5  1  0  0  0
  5  6  1  0  0  0
  6  7  1  0  0  0
 29 30  1  0  0  0
 30 31  2  0  0  0
 31 32  1  0  0  0
 32 33  1  0  0  0
 33 25  2  0  0  0
 32 28  1  0  0  0
  6  1  1  0  0  0
 14  9  1  0  0  0
 22 23  1  0  0  0
  7  8  1  0  0  0
M  END
> <minimizedAffinity>
-8.25989

> <CNNscore>
0.1386738569

> <CNNaffinity>
5.9959945679

> <CNN_VS>
0.8314877152

> <CNNaffinity_variance>
0.2181684077

$$$$
[H]OC1([H])C([H])([H])OC([H])([H])C([H])([H])C1(c1c([H])c([H])c(C(F)(F)F)c([H])c1F)N([H])C(=O)c1c([H])nn2c([H])c(C([H])([H])[H])c([H])nc12


 33 36  0  0  0  0  0  0  0  0999 V2000
  -89.0890   28.5074   -0.5192 C   0  0  0  0  0  0  0  0  0  0  0  0
  -89.2488   29.7976   -1.0834 C   0  0  0  0  0  0  0  0  0  0  0  0
  -88.1680   30.8473   -0.8733 C   0  0  0  0  0  0  0  0  0  0  0  0
  -87.0583   30.5016   -0.1942 O   0  0  0  0  0  0  0  0  0  0  0  0
  -86.6486   29.2301   -0.3245 C   0  0  0  0  0  0  0  0  0  0  0  0
  -87.5850   28.1334   -0.5322 C   0  0  0  0  0  0  0  0  0  0  0  0
  -87.2504   27.4966   -1.7447 O   0  0  0  0  0  0  0  0  0  0  0  0
  -86.6996   26.7178   -1.6027 H   0  0  0  0  0  0  0  0  0  0  0  0
  -89.5662   28.0596    0.7782 C   0  0  0  0  0  0  0  0  0  0  0  0
  -88.7789   27.0846    1.4155 C   0  0  0  0  0  0  0  0  0  0  0  0
  -89.0152   26.6587    2.7021 C   0  0  0  0  0  0  0  0  0  0  0  0
  -90.0329   27.1528    3.4490 C   0  0  0  0  0  0  0  0  0  0  0  0
  -90.8374   28.1247    2.8510 C   0  0  0  0  0  0  0  0  0  0  0  0
  -90.5701   28.5310    1.5554 C   0  0  0  0  0  0  0  0  0  0  0  0
  -91.4055   29.4340    1.0387 F   0  0  0  0  0  0  0  0  0  0  0  0
  -90.2659   26.7263    4.8481 C   0  0  0  0  0  0  0  0  0  0  0  0
  -90.0668   27.7972    5.7274 F   0  0  0  0  0  0  0  0  0  0  0  0
  -91.5493   26.2417    4.9471 F   0  0  0  0  0  0  0  0  0  0  0  0
  -89.4645   25.6523    5.2284 F   0  0  0  0  0  0  0  0  0  0  0  0
  -90.8204   27.8822   -2.1611 C   0  0  0  0  0  0  0  0  0  0  0  0
  -91.2877   29.0465   -1.9990 O   0  0  0  0  0  0  0  0  0  0  0  0
  -89.6382   27.4662   -1.4478 N   0  0  0  0  0  0  0  0  0  0  0  0
  -89.2690   26.5419   -1.5888 H   0  0  0  0  0  0  0  0  0  0  0  0
  -94.6515   28.1073   -7.6542 C   0  0  0  0  0  0  0  0  0  0  0  0
  -93.7975   27.8943   -6.4319 C   0  0  0  0  0  0  0  0  0  0  0  0
  -93.1318   28.9337   -5.8207 C   0  0  0  0  0  0  0  0  0  0  0  0
  -92.3765   28.7232   -4.7262 N   0  0  0  0  0  0  0  0  0  0  0  0
  -92.2628   27.4946   -4.2140 C   0  0  0  0  0  0  0  0  0  0  0  0
  -91.5630   27.0566   -3.0781 C   0  0  0  0  0  0  0  0  0  0  0  0
  -91.8184   25.7192   -3.0350 C   0  0  0  0  0  0  0  0  0  0  0  0
  -92.6177   25.3912   -4.0728 N   0  0  0  0  0  0  0  0  0  0  0  0
  -92.8900   26.4759   -4.7854 N   0  0  0  0  0  0  0  0  0  0  0  0
  -93.6653   26.6191   -5.8897 C   0  0  0  0  0  0  0  0  0  0  0  0
 24 25  1  0  0  0
 25 26  1  0  0  0
 26 27  2  0  0  0
 27 28  1  0  0  0
 28 29  2  0  0  0
 29 20  1  0  0  0
 20 21  2  0  0  0
 20 22  1  0  0  0
 22  1  1  0  0  0
  1  9  1  0  0  0
  9 10  2  0  0  0
 10 11  1  0  0  0
 11 12  2  0  0  0
 12 16  1  0  0  0
 16 17  1  0  0  0
 16 18  1  0  0  0
 16 19  1  0  0  0
 12 13  1  0  0  0
 13 14  2  0  0  0
 14 15  1  0  0  0
  1  2  1  0  0  0
  2  3  1  0  0  0
  3  4  1  0  0  0
  4  5  1  0  0  0
  5  6  1  0  0  0
  6  7  1  0  0  0
 29 30  1  0  0  0
 30 31  2  0  0  0
 31 32  1  0  0  0
 32 33  1  0  0  0
 33 25  2  0  0  0
 32 28  1  0  0  0
  6  1  1  0  0  0
 14  9  1  0  0  0
 22 23  1  0  0  0
  7  8  1  0  0  0
M  END
> <minimizedAffinity>
-8.18872

> <CNNscore>
0.1362367123

> <CNNaffinity>
5.4901595116

> <CNN_VS>
0.7479612827

> <CNNaffinity_variance>
0.2243116647

$$$$
[H]OC1([H])C([H])([H])OC([H])([H])C([H])([H])C1(c1c([H])c([H])c(C(F)(F)F)c([H])c1F)N([H])C(=O)c1c([H])nn2c([H])c(C([H])([H])[H])c([H])nc12


 33 36  0  0  0  0  0  0  0  0999 V2000
  -88.3111   31.1692   -1.8126 C   0  0  0  0  0  0  0  0  0  0  0  0
  -89.3749   32.1027   -1.8841 C   0  0  0  0  0  0  0  0  0  0  0  0
  -89.3034   33.2462   -2.8849 C   0  0  0  0  0  0  0  0  0  0  0  0
  -88.2460   33.3096   -3.7154 O   0  0  0  0  0  0  0  0  0  0  0  0
  -87.7139   32.1380   -4.0974 C   0  0  0  0  0  0  0  0  0  0  0  0
  -87.7211   30.9665   -3.2314 C   0  0  0  0  0  0  0  0  0  0  0  0
  -88.4047   29.9315   -3.9015 O   0  0  0  0  0  0  0  0  0  0  0  0
  -87.7984   29.3316   -4.3515 H   0  0  0  0  0  0  0  0  0  0  0  0
  -87.1511   31.2366   -0.9400 C   0  0  0  0  0  0  0  0  0  0  0  0
  -86.5800   30.0016   -0.5863 C   0  0  0  0  0  0  0  0  0  0  0  0
  -85.4015   29.8981    0.1159 C   0  0  0  0  0  0  0  0  0  0  0  0
  -84.7053   30.9890    0.5195 C   0  0  0  0  0  0  0  0  0  0  0  0
  -85.2401   32.2349    0.1861 C   0  0  0  0  0  0  0  0  0  0  0  0
  -86.4269   32.3021   -0.5224 C   0  0  0  0  0  0  0  0  0  0  0  0
  -86.8950   33.5269   -0.7698 F   0  0  0  0  0  0  0  0  0  0  0  0
  -83.4159   30.8815    1.2403 C   0  0  0  0  0  0  0  0  0  0  0  0
  -82.3438   30.9750    0.3449 F   0  0  0  0  0  0  0  0  0  0  0  0
  -83.3587   31.8831    2.1811 F   0  0  0  0  0  0  0  0  0  0  0  0
  -83.3056   29.7081    1.9827 F   0  0  0  0  0  0  0  0  0  0  0  0
  -89.7338   29.7273   -0.4050 C   0  0  0  0  0  0  0  0  0  0  0  0
  -90.0209   30.7737    0.2453 O   0  0  0  0  0  0  0  0  0  0  0  0
  -88.8470   29.7956   -1.5401 N   0  0  0  0  0  0  0  0  0  0  0  0
  -88.6306   28.9604   -2.0559 H   0  0  0  0  0  0  0  0  0  0  0  0
  -91.1402   23.3835   -2.0420 C   0  0  0  0  0  0  0  0  0  0  0  0
  -90.8803   24.7741   -1.5251 C   0  0  0  0  0  0  0  0  0  0  0  0
  -90.1587   25.6959   -2.2510 C   0  0  0  0  0  0  0  0  0  0  0  0
  -89.9408   26.9356   -1.7730 N   0  0  0  0  0  0  0  0  0  0  0  0
  -90.4260   27.2911   -0.5801 C   0  0  0  0  0  0  0  0  0  0  0  0
  -90.3468   28.5220    0.0907 C   0  0  0  0  0  0  0  0  0  0  0  0
  -91.0315   28.3057    1.2483 C   0  0  0  0  0  0  0  0  0  0  0  0
  -91.4870   27.0345    1.2579 N   0  0  0  0  0  0  0  0  0  0  0  0
  -91.1204   26.4216    0.1405 N   0  0  0  0  0  0  0  0  0  0  0  0
  -91.3749   25.1575   -0.2818 C   0  0  0  0  0  0  0  0  0  0  0  0
 24 25  1  0  0  0
 25 26  1  0  0  0
 26 27  2  0  0  0
 27 28  1  0  0  0
 28 29  2  0  0  0
 29 20  1  0  0  0
 20 21  2  0  0  0
 20 22  1  0  0  0
 22  1  1  0  0  0
  1  9  1  0  0  0
  9 10  2  0  0  0
 10 11  1  0  0  0
 11 12  2  0  0  0
 12 16  1  0  0  0
 16 17  1  0  0  0
 16 18  1  0  0  0
 16 19  1  0  0  0
 12 13  1  0  0  0
 13 14  2  0  0  0
 14 15  1  0  0  0
  1  2  1  0  0  0
  2  3  1  0  0  0
  3  4  1  0  0  0
  4  5  1  0  0  0
  5  6  1  0  0  0
  6  7  1  0  0  0
 29 30  1  0  0  0
 30 31  2  0  0  0
 31 32  1  0  0  0
 32 33  1  0  0  0
 33 25  2  0  0  0
 32 28  1  0  0  0
  6  1  1  0  0  0
 14  9  1  0  0  0
 22 23  1  0  0  0
  7  8  1  0  0  0
M  END
> <minimizedAffinity>
-9.58298

> <CNNscore>
0.1361346990

> <CNNaffinity>
5.8206472397

> <CNN_VS>
0.7923920751

> <CNNaffinity_variance>
0.4130901396

$$$$
[H]OC(=O)C([H])([H])C([H])([H])[C@@]([H])(C(=O)N1C([H])([H])C([H])([H])C([H])([H])[C@@]1([H])C(=O)N([H])[C@]([H])(C(=O)OC([H])([H])[H])C([H])([H])c1c([H])c([H])c([H])c([H])c1[H])N([H])C(=O)[C@@]([H])(N([H])C(=O)OC([H])([H])c1c([H])c([H])c([H])c([H])c1[H])[C@@]([H])(C([H])([H])[H])C([H])([H])C([H])([H])[H]


 51 53  0  0  0  0  0  0  0  0999 V2000
  -90.5338   31.2062   -2.4514 C   0  0  0  0  0  0  0  0  0  0  0  0
  -89.7910   30.5806   -1.3944 C   0  0  0  0  0  0  0  0  0  0  0  0
  -89.5945   31.4728   -0.3859 O   0  0  0  0  0  0  0  0  0  0  0  0
  -89.2088   29.3707   -1.0812 N   0  0  0  0  0  0  0  0  0  0  0  0
  -88.5265   29.1389    0.2241 C   0  0  0  0  0  0  0  0  0  0  0  0
  -87.1791   28.6492   -0.2639 C   0  0  0  0  0  0  0  0  0  0  0  0
  -87.5402   27.7925   -1.4295 C   0  0  0  0  0  0  0  0  0  0  0  0
  -89.0116   28.1489   -1.7668 C   0  0  0  0  0  0  0  0  0  0  0  0
  -89.7932   26.9971   -1.2867 C   0  0  0  0  0  0  0  0  0  0  0  0
  -91.0350   27.0317   -1.2957 O   0  0  0  0  0  0  0  0  0  0  0  0
  -89.1233   25.8444   -0.8097 N   0  0  0  0  0  0  0  0  0  0  0  0
  -88.0836   25.7654   -0.7940 H   0  0  0  0  0  0  0  0  0  0  0  0
  -89.9175   24.7046   -0.3098 C   0  0  0  0  0  0  0  0  0  0  0  0
  -90.5200   23.9705   -1.4291 C   0  0  0  0  0  0  0  0  0  0  0  0
  -89.7533   23.3711   -2.2726 O   0  0  0  0  0  0  0  0  0  0  0  0
  -91.8535   23.8545   -1.6686 O   0  0  0  0  0  0  0  0  0  0  0  0
  -92.3916   23.7889   -2.9985 C   0  0  0  0  0  0  0  0  0  0  0  0
  -90.9640   25.2361    0.6150 C   0  0  0  0  0  0  0  0  0  0  0  0
  -90.5669   25.4445    2.0015 C   0  0  0  0  0  0  0  0  0  0  0  0
  -90.4281   26.7645    2.4248 C   0  0  0  0  0  0  0  0  0  0  0  0
  -90.0789   26.9981    3.7237 C   0  0  0  0  0  0  0  0  0  0  0  0
  -89.8607   25.9785    4.6264 C   0  0  0  0  0  0  0  0  0  0  0  0
  -90.0108   24.6580    4.1657 C   0  0  0  0  0  0  0  0  0  0  0  0
  -90.3565   24.4095    2.8761 C   0  0  0  0  0  0  0  0  0  0  0  0
  -88.6189   32.6426   -3.3147 C   0  0  0  0  0  0  0  0  0  0  0  0
  -88.1846   31.5640   -3.8648 O   0  0  0  0  0  0  0  0  0  0  0  0
  -89.8027   32.5482   -2.5813 N   0  0  0  0  0  0  0  0  0  0  0  0
  -90.2250   33.3633   -2.1003 H   0  0  0  0  0  0  0  0  0  0  0  0
  -87.8114   33.8271   -3.5228 C   0  0  0  0  0  0  0  0  0  0  0  0
  -86.4554   33.6696   -3.0640 N   0  0  0  0  0  0  0  0  0  0  0  0
  -85.9602   33.4961   -1.7661 C   0  0  0  0  0  0  0  0  0  0  0  0
  -86.5932   33.4455   -0.6953 O   0  0  0  0  0  0  0  0  0  0  0  0
  -85.6898   33.6860   -3.8352 H   0  0  0  0  0  0  0  0  0  0  0  0
  -84.5562   33.3570   -1.5853 O   0  0  0  0  0  0  0  0  0  0  0  0
  -83.9531   33.4940   -0.3248 C   0  0  0  0  0  0  0  0  0  0  0  0
  -83.7572   32.2457    0.4025 C   0  0  0  0  0  0  0  0  0  0  0  0
  -84.7369   31.8016    1.2847 C   0  0  0  0  0  0  0  0  0  0  0  0
  -84.6198   30.6419    2.0064 C   0  0  0  0  0  0  0  0  0  0  0  0
  -83.4785   29.8576    1.8663 C   0  0  0  0  0  0  0  0  0  0  0  0
  -82.4990   30.2907    0.9914 C   0  0  0  0  0  0  0  0  0  0  0  0
  -82.6336   31.4622    0.2718 C   0  0  0  0  0  0  0  0  0  0  0  0
  -87.7854   34.3798   -4.9306 C   0  0  0  0  0  0  0  0  0  0  0  0
  -89.1714   34.6151   -5.5134 C   0  0  0  0  0  0  0  0  0  0  0  0
  -87.2645   36.5144   -6.1660 C   0  0  0  0  0  0  0  0  0  0  0  0
  -87.1522   35.7636   -4.8533 C   0  0  0  0  0  0  0  0  0  0  0  0
  -90.7818   30.6897   -3.7815 C   0  0  0  0  0  0  0  0  0  0  0  0
  -92.1581   30.2618   -4.1753 C   0  0  0  0  0  0  0  0  0  0  0  0
  -92.4067   28.8243   -3.7883 C   0  0  0  0  0  0  0  0  0  0  0  0
  -91.8922   27.9011   -4.4551 O   0  0  0  0  0  0  0  0  0  0  0  0
  -93.1991   28.4771   -2.6980 O   0  0  0  0  0  0  0  0  0  0  0  0
  -93.0713   27.6479   -2.1667 H   0  0  0  0  0  0  0  0  0  0  0  0
 44 45  1  0  0  0
 45 42  1  0  0  0
 42 43  1  0  0  0
 42 29  1  0  0  0
 29 30  1  0  0  0
 30 31  1  0  0  0
 31 32  2  0  0  0
 31 34  1  0  0  0
 34 35  1  0  0  0
 35 36  1  0  0  0
 36 37  2  0  0  0
 37 38  1  0  0  0
 38 39  2  0  0  0
 39 40  1  0  0  0
 40 41  2  0  0  0
 29 25  1  0  0  0
 25 26  2  0  0  0
 25 27  1  0  0  0
 27  1  1  0  0  0
  1 46  1  0  0  0
 46 47  1  0  0  0
 47 48  1  0  0  0
 48 49  2  0  0  0
 48 50  1  0  0  0
  1  2  1  0  0  0
  2  3  2  0  0  0
  2  4  1  0  0  0
  4  5  1  0  0  0
  5  6  1  0  0  0
  6  7  1  0  0  0
  7  8  1  0  0  0
  8  9  1  0  0  0
  9 10  2  0  0  0
  9 11  1  0  0  0
 11 13  1  0  0  0
 13 18  1  0  0  0
 18 19  1  0  0  0
 19 20  2  0  0  0
 20 21  1  0  0  0
 21 22  2  0  0  0
 22 23  1  0  0  0
 23 24  2  0  0  0
 13 14  1  0  0  0
 14 15  2  0  0  0
 14 16  1  0  0  0
 16 17  1  0  0  0
 41 36  1  0  0  0
  8  4  1  0  0  0
 24 19  1  0  0  0
 30 33  1  0  0  0
 27 28  1  0  0  0
 50 51  1  0  0  0
 11 12  1  0  0  0
M  END
> <minimizedAffinity>
-8.41687

> <CNNscore>
0.4889051318

> <CNNaffinity>
7.3069572449

> <CNN_VS>
3.5724089146

> <CNNaffinity_variance>
0.2838608623

$$$$
[H]OC(=O)C([H])([H])C([H])([H])[C@@]([H])(C(=O)N1C([H])([H])C([H])([H])C([H])([H])[C@@]1([H])C(=O)N([H])[C@]([H])(C(=O)OC([H])([H])[H])C([H])([H])c1c([H])c([H])c([H])c([H])c1[H])N([H])C(=O)[C@@]([H])(N([H])C(=O)OC([H])([H])c1c([H])c([H])c([H])c([H])c1[H])[C@@]([H])(C([H])([H])[H])C([H])([H])C([H])([H])[H]


 51 53  0  0  0  0  0  0  0  0999 V2000
  -90.5794   31.4981   -2.5357 C   0  0  0  0  0  0  0  0  0  0  0  0
  -89.9146   30.7619   -1.4981 C   0  0  0  0  0  0  0  0  0  0  0  0
  -89.6750   31.5824   -0.4393 O   0  0  0  0  0  0  0  0  0  0  0  0
  -89.4365   29.4952   -1.2377 N   0  0  0  0  0  0  0  0  0  0  0  0
  -88.8078   29.1430    0.0675 C   0  0  0  0  0  0  0  0  0  0  0  0
  -87.4906   28.5742   -0.4172 C   0  0  0  0  0  0  0  0  0  0  0  0
  -87.8875   27.8101   -1.6345 C   0  0  0  0  0  0  0  0  0  0  0  0
  -89.3176   28.2987   -1.9835 C   0  0  0  0  0  0  0  0  0  0  0  0
  -90.1985   27.1891   -1.5825 C   0  0  0  0  0  0  0  0  0  0  0  0
  -91.3808   27.4061   -1.2688 O   0  0  0  0  0  0  0  0  0  0  0  0
  -89.6922   25.8670   -1.5526 N   0  0  0  0  0  0  0  0  0  0  0  0
  -88.7108   25.6354   -1.8185 H   0  0  0  0  0  0  0  0  0  0  0  0
  -90.5785   24.7655   -1.1273 C   0  0  0  0  0  0  0  0  0  0  0  0
  -90.0151   24.0769    0.0402 C   0  0  0  0  0  0  0  0  0  0  0  0
  -89.5345   22.8906   -0.1016 O   0  0  0  0  0  0  0  0  0  0  0  0
  -89.9454   24.5877    1.2985 O   0  0  0  0  0  0  0  0  0  0  0  0
  -90.9796   24.3745    2.2718 C   0  0  0  0  0  0  0  0  0  0  0  0
  -90.7441   23.8293   -2.2803 C   0  0  0  0  0  0  0  0  0  0  0  0
  -92.0377   23.8401   -2.9510 C   0  0  0  0  0  0  0  0  0  0  0  0
  -92.6812   22.6132   -3.0969 C   0  0  0  0  0  0  0  0  0  0  0  0
  -93.9054   22.5881   -3.7007 C   0  0  0  0  0  0  0  0  0  0  0  0
  -94.5238   23.7288   -4.1680 C   0  0  0  0  0  0  0  0  0  0  0  0
  -93.8465   24.9505   -4.0031 C   0  0  0  0  0  0  0  0  0  0  0  0
  -92.6276   24.9916   -3.4056 C   0  0  0  0  0  0  0  0  0  0  0  0
  -88.4982   32.8018   -3.2028 C   0  0  0  0  0  0  0  0  0  0  0  0
  -88.0965   31.7018   -3.7352 O   0  0  0  0  0  0  0  0  0  0  0  0
  -89.7450   32.7845   -2.5755 N   0  0  0  0  0  0  0  0  0  0  0  0
  -90.1477   33.6217   -2.1163 H   0  0  0  0  0  0  0  0  0  0  0  0
  -87.5925   33.9265   -3.3171 C   0  0  0  0  0  0  0  0  0  0  0  0
  -86.2558   33.6174   -2.8793 N   0  0  0  0  0  0  0  0  0  0  0  0
  -85.7422   33.4874   -1.5834 C   0  0  0  0  0  0  0  0  0  0  0  0
  -86.3360   33.6199   -0.4973 O   0  0  0  0  0  0  0  0  0  0  0  0
  -85.5245   33.4582   -3.6672 H   0  0  0  0  0  0  0  0  0  0  0  0
  -84.3657   33.1658   -1.4251 O   0  0  0  0  0  0  0  0  0  0  0  0
  -83.7179   33.2667   -0.1835 C   0  0  0  0  0  0  0  0  0  0  0  0
  -83.6574   32.0270    0.5814 C   0  0  0  0  0  0  0  0  0  0  0  0
  -84.6778   31.7187    1.4754 C   0  0  0  0  0  0  0  0  0  0  0  0
  -84.6860   30.5755    2.2319 C   0  0  0  0  0  0  0  0  0  0  0  0
  -83.6369   29.6679    2.1170 C   0  0  0  0  0  0  0  0  0  0  0  0
  -82.6179   29.9654    1.2306 C   0  0  0  0  0  0  0  0  0  0  0  0
  -82.6259   31.1224    0.4758 C   0  0  0  0  0  0  0  0  0  0  0  0
  -87.5166   34.5885   -4.6751 C   0  0  0  0  0  0  0  0  0  0  0  0
  -88.8528   34.6320   -5.4021 C   0  0  0  0  0  0  0  0  0  0  0  0
  -88.0125   36.6832   -3.3636 C   0  0  0  0  0  0  0  0  0  0  0  0
  -87.1511   36.0485   -4.4382 C   0  0  0  0  0  0  0  0  0  0  0  0
  -90.8305   31.0734   -3.8972 C   0  0  0  0  0  0  0  0  0  0  0  0
  -91.9349   31.6982   -4.6861 C   0  0  0  0  0  0  0  0  0  0  0  0
  -92.6643   30.6621   -5.5060 C   0  0  0  0  0  0  0  0  0  0  0  0
  -93.8451   30.8659   -5.8608 O   0  0  0  0  0  0  0  0  0  0  0  0
  -92.0650   29.4668   -5.8923 O   0  0  0  0  0  0  0  0  0  0  0  0
  -92.3057   28.9726   -6.7193 H   0  0  0  0  0  0  0  0  0  0  0  0
 44 45  1  0  0  0
 45 42  1  0  0  0
 42 43  1  0  0  0
 42 29  1  0  0  0
 29 30  1  0  0  0
 30 31  1  0  0  0
 31 32  2  0  0  0
 31 34  1  0  0  0
 34 35  1  0  0  0
 35 36  1  0  0  0
 36 37  2  0  0  0
 37 38  1  0  0  0
 38 39  2  0  0  0
 39 40  1  0  0  0
 40 41  2  0  0  0
 29 25  1  0  0  0
 25 26  2  0  0  0
 25 27  1  0  0  0
 27  1  1  0  0  0
  1 46  1  0  0  0
 46 47  1  0  0  0
 47 48  1  0  0  0
 48 49  2  0  0  0
 48 50  1  0  0  0
  1  2  1  0  0  0
  2  3  2  0  0  0
  2  4  1  0  0  0
  4  5  1  0  0  0
  5  6  1  0  0  0
  6  7  1  0  0  0
  7  8  1  0  0  0
  8  9  1  0  0  0
  9 10  2  0  0  0
  9 11  1  0  0  0
 11 13  1  0  0  0
 13 18  1  0  0  0
 18 19  1  0  0  0
 19 20  2  0  0  0
 20 21  1  0  0  0
 21 22  2  0  0  0
 22 23  1  0  0  0
 23 24  2  0  0  0
 13 14  1  0  0  0
 14 15  2  0  0  0
 14 16  1  0  0  0
 16 17  1  0  0  0
 41 36  1  0  0  0
  8  4  1  0  0  0
 24 19  1  0  0  0
 30 33  1  0  0  0
 27 28  1  0  0  0
 50 51  1  0  0  0
 11 12  1  0  0  0
M  END
> <minimizedAffinity>
-8.53068

> <CNNscore>
0.3175331652

> <CNNaffinity>
6.9570336342

> <CNN_VS>
2.2090888023

> <CNNaffinity_variance>
0.3938926160

$$$$
[H]OC(=O)C([H])([H])C([H])([H])[C@@]([H])(C(=O)N1C([H])([H])C([H])([H])C([H])([H])[C@@]1([H])C(=O)N([H])[C@]([H])(C(=O)OC([H])([H])[H])C([H])([H])c1c([H])c([H])c([H])c([H])c1[H])N([H])C(=O)[C@@]([H])(N([H])C(=O)OC([H])([H])c1c([H])c([H])c([H])c([H])c1[H])[C@@]([H])(C([H])([H])[H])C([H])([H])C([H])([H])[H]


 51 53  0  0  0  0  0  0  0  0999 V2000
  -90.7216   22.6435    1.7876 C   0  0  0  0  0  0  0  0  0  0  0  0
  -91.7706   23.2518    1.0195 C   0  0  0  0  0  0  0  0  0  0  0  0
  -92.9779   22.8197    1.4749 O   0  0  0  0  0  0  0  0  0  0  0  0
  -91.9426   24.1248   -0.0337 N   0  0  0  0  0  0  0  0  0  0  0  0
  -93.2967   24.5288   -0.5093 C   0  0  0  0  0  0  0  0  0  0  0  0
  -93.1765   24.1821   -1.9786 C   0  0  0  0  0  0  0  0  0  0  0  0
  -91.7807   24.5939   -2.3031 C   0  0  0  0  0  0  0  0  0  0  0  0
  -91.0760   24.7871   -0.9349 C   0  0  0  0  0  0  0  0  0  0  0  0
  -90.9618   26.2466   -0.7777 C   0  0  0  0  0  0  0  0  0  0  0  0
  -91.1664   26.7785    0.3262 O   0  0  0  0  0  0  0  0  0  0  0  0
  -90.6190   27.0479   -1.8937 N   0  0  0  0  0  0  0  0  0  0  0  0
  -90.4270   26.6451   -2.8363 H   0  0  0  0  0  0  0  0  0  0  0  0
  -90.5295   28.5123   -1.7291 C   0  0  0  0  0  0  0  0  0  0  0  0
  -91.4922   29.1861   -2.6088 C   0  0  0  0  0  0  0  0  0  0  0  0
  -92.5716   29.6731   -2.1027 O   0  0  0  0  0  0  0  0  0  0  0  0
  -91.3493   29.3552   -3.9505 O   0  0  0  0  0  0  0  0  0  0  0  0
  -91.5557   30.6243   -4.5903 C   0  0  0  0  0  0  0  0  0  0  0  0
  -89.1286   28.9310   -2.0380 C   0  0  0  0  0  0  0  0  0  0  0  0
  -88.8111   30.3409   -1.8516 C   0  0  0  0  0  0  0  0  0  0  0  0
  -88.0192   30.9420   -2.8274 C   0  0  0  0  0  0  0  0  0  0  0  0
  -87.7201   32.2677   -2.6971 C   0  0  0  0  0  0  0  0  0  0  0  0
  -88.1727   33.0282   -1.6394 C   0  0  0  0  0  0  0  0  0  0  0  0
  -88.9709   32.3896   -0.6732 C   0  0  0  0  0  0  0  0  0  0  0  0
  -89.2761   31.0713   -0.7882 C   0  0  0  0  0  0  0  0  0  0  0  0
  -90.2239   24.7127    3.1827 C   0  0  0  0  0  0  0  0  0  0  0  0
  -91.3021   24.4237    3.8219 O   0  0  0  0  0  0  0  0  0  0  0  0
  -89.8584   23.8619    2.1383 N   0  0  0  0  0  0  0  0  0  0  0  0
  -89.0089   24.0180    1.5657 H   0  0  0  0  0  0  0  0  0  0  0  0
  -89.5244   25.9003    3.6284 C   0  0  0  0  0  0  0  0  0  0  0  0
  -88.8903   26.6156    2.5512 N   0  0  0  0  0  0  0  0  0  0  0  0
  -87.5468   26.6429    2.1587 C   0  0  0  0  0  0  0  0  0  0  0  0
  -86.5784   26.0487    2.6676 O   0  0  0  0  0  0  0  0  0  0  0  0
  -89.5457   27.2324    1.9421 H   0  0  0  0  0  0  0  0  0  0  0  0
  -87.1800   27.4398    1.0390 O   0  0  0  0  0  0  0  0  0  0  0  0
  -87.1682   28.8426    1.0985 C   0  0  0  0  0  0  0  0  0  0  0  0
  -85.8418   29.4477    1.0891 C   0  0  0  0  0  0  0  0  0  0  0  0
  -84.8029   28.8409    1.7876 C   0  0  0  0  0  0  0  0  0  0  0  0
  -83.5324   29.3542    1.8286 C   0  0  0  0  0  0  0  0  0  0  0  0
  -83.2458   30.5343    1.1484 C   0  0  0  0  0  0  0  0  0  0  0  0
  -84.2719   31.1449    0.4508 C   0  0  0  0  0  0  0  0  0  0  0  0
  -85.5467   30.6134    0.4201 C   0  0  0  0  0  0  0  0  0  0  0  0
  -90.3290   26.8803    4.4532 C   0  0  0  0  0  0  0  0  0  0  0  0
  -89.8797   26.9606    5.9050 C   0  0  0  0  0  0  0  0  0  0  0  0
  -91.2784   28.8393    3.1823 C   0  0  0  0  0  0  0  0  0  0  0  0
  -90.0608   28.2673    3.8822 C   0  0  0  0  0  0  0  0  0  0  0  0
  -90.8576   21.8228    2.9730 C   0  0  0  0  0  0  0  0  0  0  0  0
  -90.0302   20.5886    3.1296 C   0  0  0  0  0  0  0  0  0  0  0  0
  -88.8345   20.8500    4.0127 C   0  0  0  0  0  0  0  0  0  0  0  0
  -88.0052   19.9397    4.2249 O   0  0  0  0  0  0  0  0  0  0  0  0
  -88.6117   22.0868    4.6109 O   0  0  0  0  0  0  0  0  0  0  0  0
  -87.7089   22.4368    4.8315 H   0  0  0  0  0  0  0  0  0  0  0  0
 44 45  1  0  0  0
 45 42  1  0  0  0
 42 43  1  0  0  0
 42 29  1  0  0  0
 29 30  1  0  0  0
 30 31  1  0  0  0
 31 32  2  0  0  0
 31 34  1  0  0  0
 34 35  1  0  0  0
 35 36  1  0  0  0
 36 37  2  0  0  0
 37 38  1  0  0  0
 38 39  2  0  0  0
 39 40  1  0  0  0
 40 41  2  0  0  0
 29 25  1  0  0  0
 25 26  2  0  0  0
 25 27  1  0  0  0
 27  1  1  0  0  0
  1 46  1  0  0  0
 46 47  1  0  0  0
 47 48  1  0  0  0
 48 49  2  0  0  0
 48 50  1  0  0  0
  1  2  1  0  0  0
  2  3  2  0  0  0
  2  4  1  0  0  0
  4  5  1  0  0  0
  5  6  1  0  0  0
  6  7  1  0  0  0
  7  8  1  0  0  0
  8  9  1  0  0  0
  9 10  2  0  0  0
  9 11  1  0  0  0
 11 13  1  0  0  0
 13 18  1  0  0  0
 18 19  1  0  0  0
 19 20  2  0  0  0
 20 21  1  0  0  0
 21 22  2  0  0  0
 22 23  1  0  0  0
 23 24  2  0  0  0
 13 14  1  0  0  0
 14 15  2  0  0  0
 14 16  1  0  0  0
 16 17  1  0  0  0
 41 36  1  0  0  0
  8  4  1  0  0  0
 24 19  1  0  0  0
 30 33  1  0  0  0
 27 28  1  0  0  0
 50 51  1  0  0  0
 11 12  1  0  0  0
M  END
> <minimizedAffinity>
-8.93191

> <CNNscore>
0.1997322887

> <CNNaffinity>
7.0927228928

> <CNN_VS>
1.4166457653

> <CNNaffinity_variance>
0.2964385450

$$$$
[H]OC(=O)C([H])([H])C([H])([H])[C@@]([H])(C(=O)N1C([H])([H])C([H])([H])C([H])([H])[C@@]1([H])C(=O)N([H])[C@]([H])(C(=O)OC([H])([H])[H])C([H])([H])c1c([H])c([H])c([H])c([H])c1[H])N([H])C(=O)[C@@]([H])(N([H])C(=O)OC([H])([H])c1c([H])c([H])c([H])c([H])c1[H])[C@@]([H])(C([H])([H])[H])C([H])([H])C([H])([H])[H]


 51 53  0  0  0  0  0  0  0  0999 V2000
  -90.5574   31.1783   -2.1138 C   0  0  0  0  0  0  0  0  0  0  0  0
  -89.9163   30.4070   -1.0868 C   0  0  0  0  0  0  0  0  0  0  0  0
  -90.0132   31.0617    0.1021 O   0  0  0  0  0  0  0  0  0  0  0  0
  -89.2296   29.2224   -0.9246 N   0  0  0  0  0  0  0  0  0  0  0  0
  -88.7432   28.7700    0.4102 C   0  0  0  0  0  0  0  0  0  0  0  0
  -87.2793   28.5422    0.0961 C   0  0  0  0  0  0  0  0  0  0  0  0
  -87.3227   27.9410   -1.2676 C   0  0  0  0  0  0  0  0  0  0  0  0
  -88.7548   28.2147   -1.7968 C   0  0  0  0  0  0  0  0  0  0  0  0
  -89.4354   26.9112   -1.7206 C   0  0  0  0  0  0  0  0  0  0  0  0
  -88.7772   25.8577   -1.7042 O   0  0  0  0  0  0  0  0  0  0  0  0
  -90.8495   26.8601   -1.6683 N   0  0  0  0  0  0  0  0  0  0  0  0
  -91.4427   27.7178   -1.6679 H   0  0  0  0  0  0  0  0  0  0  0  0
  -91.5216   25.5466   -1.6148 C   0  0  0  0  0  0  0  0  0  0  0  0
  -92.8671   25.6361   -2.1947 C   0  0  0  0  0  0  0  0  0  0  0  0
  -93.8914   25.5850   -1.4159 O   0  0  0  0  0  0  0  0  0  0  0  0
  -93.1472   25.7760   -3.5180 O   0  0  0  0  0  0  0  0  0  0  0  0
  -93.6389   24.6890   -4.3175 C   0  0  0  0  0  0  0  0  0  0  0  0
  -91.5753   25.1088   -0.1871 C   0  0  0  0  0  0  0  0  0  0  0  0
  -91.2795   23.7069    0.0788 C   0  0  0  0  0  0  0  0  0  0  0  0
  -92.3418   22.9075    0.4949 C   0  0  0  0  0  0  0  0  0  0  0  0
  -92.1063   21.5838    0.7318 C   0  0  0  0  0  0  0  0  0  0  0  0
  -90.8605   21.0136    0.5735 C   0  0  0  0  0  0  0  0  0  0  0  0
  -89.8111   21.8494    0.1510 C   0  0  0  0  0  0  0  0  0  0  0  0
  -90.0293   23.1685   -0.0874 C   0  0  0  0  0  0  0  0  0  0  0  0
  -88.4644   32.5858   -2.4515 C   0  0  0  0  0  0  0  0  0  0  0  0
  -87.9344   31.5123   -2.9221 O   0  0  0  0  0  0  0  0  0  0  0  0
  -89.7894   32.5028   -2.0206 N   0  0  0  0  0  0  0  0  0  0  0  0
  -90.2967   33.3147   -1.6238 H   0  0  0  0  0  0  0  0  0  0  0  0
  -87.6069   33.7530   -2.4220 C   0  0  0  0  0  0  0  0  0  0  0  0
  -86.2445   33.4398   -2.0760 N   0  0  0  0  0  0  0  0  0  0  0  0
  -85.6846   33.1145   -0.8347 C   0  0  0  0  0  0  0  0  0  0  0  0
  -86.2490   33.0285    0.2715 O   0  0  0  0  0  0  0  0  0  0  0  0
  -85.5322   33.4550   -2.8966 H   0  0  0  0  0  0  0  0  0  0  0  0
  -84.2908   32.8391   -0.7671 O   0  0  0  0  0  0  0  0  0  0  0  0
  -83.5999   32.8026    0.4546 C   0  0  0  0  0  0  0  0  0  0  0  0
  -83.6344   31.5178    1.1429 C   0  0  0  0  0  0  0  0  0  0  0  0
  -84.7158   31.2028    1.9595 C   0  0  0  0  0  0  0  0  0  0  0  0
  -84.8144   30.0178    2.6417 C   0  0  0  0  0  0  0  0  0  0  0  0
  -83.7992   29.0725    2.5273 C   0  0  0  0  0  0  0  0  0  0  0  0
  -82.7201   29.3764    1.7176 C   0  0  0  0  0  0  0  0  0  0  0  0
  -82.6371   30.5757    1.0371 C   0  0  0  0  0  0  0  0  0  0  0  0
  -87.6053   34.6131   -3.6663 C   0  0  0  0  0  0  0  0  0  0  0  0
  -88.1899   33.9142   -4.8852 C   0  0  0  0  0  0  0  0  0  0  0  0
  -87.8680   37.1201   -3.6443 C   0  0  0  0  0  0  0  0  0  0  0  0
  -88.5424   35.7843   -3.3984 C   0  0  0  0  0  0  0  0  0  0  0  0
  -90.7076   30.8340   -3.5124 C   0  0  0  0  0  0  0  0  0  0  0  0
  -91.5347   31.6940   -4.4117 C   0  0  0  0  0  0  0  0  0  0  0  0
  -92.3144   30.8536   -5.3934 C   0  0  0  0  0  0  0  0  0  0  0  0
  -93.3709   31.2967   -5.8922 O   0  0  0  0  0  0  0  0  0  0  0  0
  -91.8971   29.5818   -5.7749 O   0  0  0  0  0  0  0  0  0  0  0  0
  -92.1003   29.1781   -6.6591 H   0  0  0  0  0  0  0  0  0  0  0  0
 44 45  1  0  0  0
 45 42  1  0  0  0
 42 43  1  0  0  0
 42 29  1  0  0  0
 29 30  1  0  0  0
 30 31  1  0  0  0
 31 32  2  0  0  0
 31 34  1  0  0  0
 34 35  1  0  0  0
 35 36  1  0  0  0
 36 37  2  0  0  0
 37 38  1  0  0  0
 38 39  2  0  0  0
 39 40  1  0  0  0
 40 41  2  0  0  0
 29 25  1  0  0  0
 25 26  2  0  0  0
 25 27  1  0  0  0
 27  1  1  0  0  0
  1 46  1  0  0  0
 46 47  1  0  0  0
 47 48  1  0  0  0
 48 49  2  0  0  0
 48 50  1  0  0  0
  1  2  1  0  0  0
  2  3  2  0  0  0
  2  4  1  0  0  0
  4  5  1  0  0  0
  5  6  1  0  0  0
  6  7  1  0  0  0
  7  8  1  0  0  0
  8  9  1  0  0  0
  9 10  2  0  0  0
  9 11  1  0  0  0
 11 13  1  0  0  0
 13 18  1  0  0  0
 18 19  1  0  0  0
 19 20  2  0  0  0
 20 21  1  0  0  0
 21 22  2  0  0  0
 22 23  1  0  0  0
 23 24  2  0  0  0
 13 14  1  0  0  0
 14 15  2  0  0  0
 14 16  1  0  0  0
 16 17  1  0  0  0
 41 36  1  0  0  0
  8  4  1  0  0  0
 24 19  1  0  0  0
 30 33  1  0  0  0
 27 28  1  0  0  0
 50 51  1  0  0  0
 11 12  1  0  0  0
M  END
> <minimizedAffinity>
-8.02851

> <CNNscore>
0.1829866022

> <CNNaffinity>
6.5035963058

> <CNN_VS>
1.1900709867

> <CNNaffinity_variance>
0.7976760268

$$$$
[H]OC(=O)C([H])([H])C([H])([H])[C@@]([H])(C(=O)N1C([H])([H])C([H])([H])C([H])([H])[C@@]1([H])C(=O)N([H])[C@]([H])(C(=O)OC([H])([H])[H])C([H])([H])c1c([H])c([H])c([H])c([H])c1[H])N([H])C(=O)[C@@]([H])(N([H])C(=O)OC([H])([H])c1c([H])c([H])c([H])c([H])c1[H])[C@@]([H])(C([H])([H])[H])C([H])([H])C([H])([H])[H]


 51 53  0  0  0  0  0  0  0  0999 V2000
  -90.1147   29.7712   -3.0024 C   0  0  0  0  0  0  0  0  0  0  0  0
  -88.9470   30.5845   -3.1907 C   0  0  0  0  0  0  0  0  0  0  0  0
  -87.9833   29.8590   -3.8202 O   0  0  0  0  0  0  0  0  0  0  0  0
  -88.4908   31.8593   -2.9303 N   0  0  0  0  0  0  0  0  0  0  0  0
  -87.1382   32.3155   -3.3607 C   0  0  0  0  0  0  0  0  0  0  0  0
  -86.5913   32.8098   -2.0378 C   0  0  0  0  0  0  0  0  0  0  0  0
  -87.7753   33.4681   -1.4150 C   0  0  0  0  0  0  0  0  0  0  0  0
  -88.9997   32.9801   -2.2327 C   0  0  0  0  0  0  0  0  0  0  0  0
  -89.3856   34.1401   -3.0534 C   0  0  0  0  0  0  0  0  0  0  0  0
  -88.8276   35.2383   -2.8924 O   0  0  0  0  0  0  0  0  0  0  0  0
  -90.4013   34.0016   -4.0303 N   0  0  0  0  0  0  0  0  0  0  0  0
  -90.8891   33.0974   -4.2088 H   0  0  0  0  0  0  0  0  0  0  0  0
  -90.7954   35.1774   -4.8316 C   0  0  0  0  0  0  0  0  0  0  0  0
  -92.2457   35.3891   -4.7509 C   0  0  0  0  0  0  0  0  0  0  0  0
  -92.7119   36.2207   -3.8851 O   0  0  0  0  0  0  0  0  0  0  0  0
  -93.1762   34.7751   -5.5294 O   0  0  0  0  0  0  0  0  0  0  0  0
  -94.3791   34.2093   -4.9860 C   0  0  0  0  0  0  0  0  0  0  0  0
  -90.3596   34.9468   -6.2423 C   0  0  0  0  0  0  0  0  0  0  0  0
  -89.4409   35.9244   -6.8112 C   0  0  0  0  0  0  0  0  0  0  0  0
  -88.1343   35.9160   -6.3279 C   0  0  0  0  0  0  0  0  0  0  0  0
  -87.2401   36.8033   -6.8539 C   0  0  0  0  0  0  0  0  0  0  0  0
  -87.5832   37.7022   -7.8420 C   0  0  0  0  0  0  0  0  0  0  0  0
  -88.9103   37.6825   -8.3076 C   0  0  0  0  0  0  0  0  0  0  0  0
  -89.8118   36.8066   -7.7934 C   0  0  0  0  0  0  0  0  0  0  0  0
  -89.6284   27.3811   -2.2766 C   0  0  0  0  0  0  0  0  0  0  0  0
  -90.0876   27.0395   -3.4286 O   0  0  0  0  0  0  0  0  0  0  0  0
  -89.6069   28.7452   -1.9816 N   0  0  0  0  0  0  0  0  0  0  0  0
  -89.2586   29.1129   -1.0774 H   0  0  0  0  0  0  0  0  0  0  0  0
  -89.1952   26.2949   -1.4218 C   0  0  0  0  0  0  0  0  0  0  0  0
  -87.9815   26.5936   -0.7063 N   0  0  0  0  0  0  0  0  0  0  0  0
  -87.7711   27.4300    0.3964 C   0  0  0  0  0  0  0  0  0  0  0  0
  -88.6013   28.1226    1.0135 O   0  0  0  0  0  0  0  0  0  0  0  0
  -87.0843   26.0992   -1.0691 H   0  0  0  0  0  0  0  0  0  0  0  0
  -86.4547   27.5458    0.9225 O   0  0  0  0  0  0  0  0  0  0  0  0
  -86.1291   28.4934    1.9060 C   0  0  0  0  0  0  0  0  0  0  0  0
  -84.9826   29.3375    1.5916 C   0  0  0  0  0  0  0  0  0  0  0  0
  -85.1626   30.4885    0.8313 C   0  0  0  0  0  0  0  0  0  0  0  0
  -84.1321   31.3265    0.4920 C   0  0  0  0  0  0  0  0  0  0  0  0
  -82.8393   31.0327    0.9163 C   0  0  0  0  0  0  0  0  0  0  0  0
  -82.6503   29.8907    1.6730 C   0  0  0  0  0  0  0  0  0  0  0  0
  -83.7006   29.0573    2.0058 C   0  0  0  0  0  0  0  0  0  0  0  0
  -90.2185   25.7671   -0.4407 C   0  0  0  0  0  0  0  0  0  0  0  0
  -91.6555   26.0431   -0.8588 C   0  0  0  0  0  0  0  0  0  0  0  0
  -90.2011   23.6709   -1.8406 C   0  0  0  0  0  0  0  0  0  0  0  0
  -90.0942   24.2485   -0.4425 C   0  0  0  0  0  0  0  0  0  0  0  0
  -91.4360   30.2041   -2.5973 C   0  0  0  0  0  0  0  0  0  0  0  0
  -92.5963   30.0385   -3.5240 C   0  0  0  0  0  0  0  0  0  0  0  0
  -92.2150   30.4097   -4.9364 C   0  0  0  0  0  0  0  0  0  0  0  0
  -92.0143   31.6066   -5.2339 O   0  0  0  0  0  0  0  0  0  0  0  0
  -92.0735   29.4561   -5.9404 O   0  0  0  0  0  0  0  0  0  0  0  0
  -91.4605   29.5592   -6.7148 H   0  0  0  0  0  0  0  0  0  0  0  0
 44 45  1  0  0  0
 45 42  1  0  0  0
 42 43  1  0  0  0
 42 29  1  0  0  0
 29 30  1  0  0  0
 30 31  1  0  0  0
 31 32  2  0  0  0
 31 34  1  0  0  0
 34 35  1  0  0  0
 35 36  1  0  0  0
 36 37  2  0  0  0
 37 38  1  0  0  0
 38 39  2  0  0  0
 39 40  1  0  0  0
 40 41  2  0  0  0
 29 25  1  0  0  0
 25 26  2  0  0  0
 25 27  1  0  0  0
 27  1  1  0  0  0
  1 46  1  0  0  0
 46 47  1  0  0  0
 47 48  1  0  0  0
 48 49  2  0  0  0
 48 50  1  0  0  0
  1  2  1  0  0  0
  2  3  2  0  0  0
  2  4  1  0  0  0
  4  5  1  0  0  0
  5  6  1  0  0  0
  6  7  1  0  0  0
  7  8  1  0  0  0
  8  9  1  0  0  0
  9 10  2  0  0  0
  9 11  1  0  0  0
 11 13  1  0  0  0
 13 18  1  0  0  0
 18 19  1  0  0  0
 19 20  2  0  0  0
 20 21  1  0  0  0
 21 22  2  0  0  0
 22 23  1  0  0  0
 23 24  2  0  0  0
 13 14  1  0  0  0
 14 15  2  0  0  0
 14 16  1  0  0  0
 16 17  1  0  0  0
 41 36  1  0  0  0
  8  4  1  0  0  0
 24 19  1  0  0  0
 30 33  1  0  0  0
 27 28  1  0  0  0
 50 51  1  0  0  0
 11 12  1  0  0  0
M  END
> <minimizedAffinity>
-8.15891

> <CNNscore>
0.1586382985

> <CNNaffinity>
6.6522521973

> <CNN_VS>
1.0553020239

> <CNNaffinity_variance>
0.4078961015

$$$$
[H]OC(=O)C([H])([H])C([H])([H])[C@@]([H])(C(=O)N1C([H])([H])C([H])([H])C([H])([H])[C@@]1([H])C(=O)N([H])[C@]([H])(C(=O)OC([H])([H])[H])C([H])([H])c1c([H])c([H])c([H])c([H])c1[H])N([H])C(=O)[C@@]([H])(N([H])C(=O)OC([H])([H])c1c([H])c([H])c([H])c([H])c1[H])[C@@]([H])(C([H])([H])[H])C([H])([H])C([H])([H])[H]


 51 53  0  0  0  0  0  0  0  0999 V2000
  -91.4970   30.1727   -2.0965 C   0  0  0  0  0  0  0  0  0  0  0  0
  -90.9385   28.8588   -2.2460 C   0  0  0  0  0  0  0  0  0  0  0  0
  -90.0001   28.8722   -3.2313 O   0  0  0  0  0  0  0  0  0  0  0  0
  -91.0560   27.5913   -1.7163 N   0  0  0  0  0  0  0  0  0  0  0  0
  -90.1985   26.4620   -2.1771 C   0  0  0  0  0  0  0  0  0  0  0  0
  -91.2648   25.4468   -2.5321 C   0  0  0  0  0  0  0  0  0  0  0  0
  -92.2708   25.6297   -1.4470 C   0  0  0  0  0  0  0  0  0  0  0  0
  -91.9115   26.9784   -0.7706 C   0  0  0  0  0  0  0  0  0  0  0  0
  -91.3000   26.5995    0.5141 C   0  0  0  0  0  0  0  0  0  0  0  0
  -91.3446   25.4226    0.9093 O   0  0  0  0  0  0  0  0  0  0  0  0
  -90.6594   27.5849    1.3040 N   0  0  0  0  0  0  0  0  0  0  0  0
  -90.5872   28.5821    1.0078 H   0  0  0  0  0  0  0  0  0  0  0  0
  -90.0695   27.1973    2.6007 C   0  0  0  0  0  0  0  0  0  0  0  0
  -90.6088   28.0347    3.6790 C   0  0  0  0  0  0  0  0  0  0  0  0
  -91.5000   28.9213    3.3999 O   0  0  0  0  0  0  0  0  0  0  0  0
  -90.2499   27.9608    4.9885 O   0  0  0  0  0  0  0  0  0  0  0  0
  -89.9701   26.7111    5.6384 C   0  0  0  0  0  0  0  0  0  0  0  0
  -88.5853   27.3369    2.4975 C   0  0  0  0  0  0  0  0  0  0  0  0
  -88.0422   27.5810    1.1675 C   0  0  0  0  0  0  0  0  0  0  0  0
  -87.5541   26.4755    0.4744 C   0  0  0  0  0  0  0  0  0  0  0  0
  -87.0581   26.6632   -0.7836 C   0  0  0  0  0  0  0  0  0  0  0  0
  -87.0242   27.9020   -1.3888 C   0  0  0  0  0  0  0  0  0  0  0  0
  -87.5263   28.9959   -0.6610 C   0  0  0  0  0  0  0  0  0  0  0  0
  -88.0219   28.8255    0.5919 C   0  0  0  0  0  0  0  0  0  0  0  0
  -89.6661   31.8399   -1.5101 C   0  0  0  0  0  0  0  0  0  0  0  0
  -90.1312   31.7836   -0.3121 O   0  0  0  0  0  0  0  0  0  0  0  0
  -90.3001   31.0545   -2.4741 N   0  0  0  0  0  0  0  0  0  0  0  0
  -89.9975   31.0389   -3.4651 H   0  0  0  0  0  0  0  0  0  0  0  0
  -88.5373   32.7258   -1.7084 C   0  0  0  0  0  0  0  0  0  0  0  0
  -87.2912   32.1545   -1.2670 N   0  0  0  0  0  0  0  0  0  0  0  0
  -86.2090   32.7552   -0.6127 C   0  0  0  0  0  0  0  0  0  0  0  0
  -86.0755   33.9432   -0.2656 O   0  0  0  0  0  0  0  0  0  0  0  0
  -87.1593   31.0945   -1.4668 H   0  0  0  0  0  0  0  0  0  0  0  0
  -85.0838   31.9518   -0.2783 O   0  0  0  0  0  0  0  0  0  0  0  0
  -84.5013   31.9851    0.9988 C   0  0  0  0  0  0  0  0  0  0  0  0
  -84.2182   30.6785    1.5803 C   0  0  0  0  0  0  0  0  0  0  0  0
  -82.9321   30.1540    1.5024 C   0  0  0  0  0  0  0  0  0  0  0  0
  -82.5932   28.9309    2.0207 C   0  0  0  0  0  0  0  0  0  0  0  0
  -83.5628   28.1620    2.6578 C   0  0  0  0  0  0  0  0  0  0  0  0
  -84.8444   28.6750    2.7405 C   0  0  0  0  0  0  0  0  0  0  0  0
  -85.1684   29.9098    2.2126 C   0  0  0  0  0  0  0  0  0  0  0  0
  -88.3521   33.2699   -3.1076 C   0  0  0  0  0  0  0  0  0  0  0  0
  -87.8854   34.7182   -3.1363 C   0  0  0  0  0  0  0  0  0  0  0  0
  -87.7289   31.4110   -4.6919 C   0  0  0  0  0  0  0  0  0  0  0  0
  -87.2165   32.4791   -3.7454 C   0  0  0  0  0  0  0  0  0  0  0  0
  -92.6797   30.7074   -2.7387 C   0  0  0  0  0  0  0  0  0  0  0  0
  -93.3553   29.9374   -3.8265 C   0  0  0  0  0  0  0  0  0  0  0  0
  -92.7594   30.2706   -5.1725 C   0  0  0  0  0  0  0  0  0  0  0  0
  -93.5077   30.5429   -6.1355 O   0  0  0  0  0  0  0  0  0  0  0  0
  -91.3848   30.2893   -5.3899 O   0  0  0  0  0  0  0  0  0  0  0  0
  -90.9423   30.8669   -6.0657 H   0  0  0  0  0  0  0  0  0  0  0  0
 44 45  1  0  0  0
 45 42  1  0  0  0
 42 43  1  0  0  0
 42 29  1  0  0  0
 29 30  1  0  0  0
 30 31  1  0  0  0
 31 32  2  0  0  0
 31 34  1  0  0  0
 34 35  1  0  0  0
 35 36  1  0  0  0
 36 37  2  0  0  0
 37 38  1  0  0  0
 38 39  2  0  0  0
 39 40  1  0  0  0
 40 41  2  0  0  0
 29 25  1  0  0  0
 25 26  2  0  0  0
 25 27  1  0  0  0
 27  1  1  0  0  0
  1 46  1  0  0  0
 46 47  1  0  0  0
 47 48  1  0  0  0
 48 49  2  0  0  0
 48 50  1  0  0  0
  1  2  1  0  0  0
  2  3  2  0  0  0
  2  4  1  0  0  0
  4  5  1  0  0  0
  5  6  1  0  0  0
  6  7  1  0  0  0
  7  8  1  0  0  0
  8  9  1  0  0  0
  9 10  2  0  0  0
  9 11  1  0  0  0
 11 13  1  0  0  0
 13 18  1  0  0  0
 18 19  1  0  0  0
 19 20  2  0  0  0
 20 21  1  0  0  0
 21 22  2  0  0  0
 22 23  1  0  0  0
 23 24  2  0  0  0
 13 14  1  0  0  0
 14 15  2  0  0  0
 14 16  1  0  0  0
 16 17  1  0  0  0
 41 36  1  0  0  0
  8  4  1  0  0  0
 24 19  1  0  0  0
 30 33  1  0  0  0
 27 28  1  0  0  0
 50 51  1  0  0  0
 11 12  1  0  0  0
M  END
> <minimizedAffinity>
-9.30905

> <CNNscore>
0.1297514737

> <CNNaffinity>
6.2909059525

> <CNN_VS>
0.8162543178

> <CNNaffinity_variance>
1.9846664667

$$$$
[H]OC(=O)C([H])([H])C([H])([H])[C@@]([H])(C(=O)N1C([H])([H])C([H])([H])C([H])([H])[C@@]1([H])C(=O)N([H])[C@]([H])(C(=O)OC([H])([H])[H])C([H])([H])c1c([H])c([H])c([H])c([H])c1[H])N([H])C(=O)[C@@]([H])(N([H])C(=O)OC([H])([H])c1c([H])c([H])c([H])c([H])c1[H])[C@@]([H])(C([H])([H])[H])C([H])([H])C([H])([H])[H]


 51 53  0  0  0  0  0  0  0  0999 V2000
  -90.4584   29.6242   -2.9406 C   0  0  0  0  0  0  0  0  0  0  0  0
  -89.3190   30.4198   -3.3002 C   0  0  0  0  0  0  0  0  0  0  0  0
  -88.3210   29.6102   -3.7474 O   0  0  0  0  0  0  0  0  0  0  0  0
  -88.9135   31.7373   -3.3286 N   0  0  0  0  0  0  0  0  0  0  0  0
  -87.5730   32.1383   -3.8436 C   0  0  0  0  0  0  0  0  0  0  0  0
  -87.0622   32.9357   -2.6617 C   0  0  0  0  0  0  0  0  0  0  0  0
  -88.2777   33.6697   -2.2070 C   0  0  0  0  0  0  0  0  0  0  0  0
  -89.4724   32.9647   -2.9010 C   0  0  0  0  0  0  0  0  0  0  0  0
  -89.8899   33.8969   -3.9616 C   0  0  0  0  0  0  0  0  0  0  0  0
  -90.4380   33.4723   -4.9925 O   0  0  0  0  0  0  0  0  0  0  0  0
  -89.6621   35.2856   -3.8048 N   0  0  0  0  0  0  0  0  0  0  0  0
  -89.2163   35.6888   -2.9525 H   0  0  0  0  0  0  0  0  0  0  0  0
  -90.0646   36.2083   -4.8848 C   0  0  0  0  0  0  0  0  0  0  0  0
  -91.5222   36.3815   -4.8933 C   0  0  0  0  0  0  0  0  0  0  0  0
  -92.1903   36.0315   -5.9370 O   0  0  0  0  0  0  0  0  0  0  0  0
  -92.2613   36.8892   -3.8710 O   0  0  0  0  0  0  0  0  0  0  0  0
  -92.3984   38.3017   -3.6507 C   0  0  0  0  0  0  0  0  0  0  0  0
  -89.5784   35.6474   -6.1818 C   0  0  0  0  0  0  0  0  0  0  0  0
  -88.8505   36.5578   -7.0563 C   0  0  0  0  0  0  0  0  0  0  0  0
  -89.5951   37.2355   -8.0191 C   0  0  0  0  0  0  0  0  0  0  0  0
  -88.9499   38.1136   -8.8416 C   0  0  0  0  0  0  0  0  0  0  0  0
  -87.5945   38.3521   -8.7524 C   0  0  0  0  0  0  0  0  0  0  0  0
  -86.8737   37.6517   -7.7683 C   0  0  0  0  0  0  0  0  0  0  0  0
  -87.5011   36.7740   -6.9435 C   0  0  0  0  0  0  0  0  0  0  0  0
  -90.1620   27.7342   -1.2626 C   0  0  0  0  0  0  0  0  0  0  0  0
  -90.6472   26.9730   -2.1790 O   0  0  0  0  0  0  0  0  0  0  0  0
  -90.0327   29.0902   -1.5672 N   0  0  0  0  0  0  0  0  0  0  0  0
  -89.6559   29.7784   -0.8902 H   0  0  0  0  0  0  0  0  0  0  0  0
  -89.8156   27.0811   -0.0169 C   0  0  0  0  0  0  0  0  0  0  0  0
  -88.5777   27.5597    0.5423 N   0  0  0  0  0  0  0  0  0  0  0  0
  -87.3507   27.8178   -0.0805 C   0  0  0  0  0  0  0  0  0  0  0  0
  -87.0465   27.6818   -1.2800 O   0  0  0  0  0  0  0  0  0  0  0  0
  -88.5850   27.7541    1.6115 H   0  0  0  0  0  0  0  0  0  0  0  0
  -86.2717   28.2976    0.7125 O   0  0  0  0  0  0  0  0  0  0  0  0
  -86.2373   29.6134    1.2009 C   0  0  0  0  0  0  0  0  0  0  0  0
  -84.9895   30.3274    0.9583 C   0  0  0  0  0  0  0  0  0  0  0  0
  -84.9966   31.4834    0.1843 C   0  0  0  0  0  0  0  0  0  0  0  0
  -83.8630   32.2035   -0.0905 C   0  0  0  0  0  0  0  0  0  0  0  0
  -82.6387   31.7780    0.4169 C   0  0  0  0  0  0  0  0  0  0  0  0
  -82.6214   30.6300    1.1878 C   0  0  0  0  0  0  0  0  0  0  0  0
  -83.7738   29.9166    1.4549 C   0  0  0  0  0  0  0  0  0  0  0  0
  -90.8738   27.0978    1.0638 C   0  0  0  0  0  0  0  0  0  0  0  0
  -90.5561   26.1799    2.2353 C   0  0  0  0  0  0  0  0  0  0  0  0
  -91.0080   28.4803    3.1674 C   0  0  0  0  0  0  0  0  0  0  0  0
  -90.8819   28.5016    1.6563 C   0  0  0  0  0  0  0  0  0  0  0  0
  -91.8406   30.0483   -2.8581 C   0  0  0  0  0  0  0  0  0  0  0  0
  -92.4923   30.7123   -4.0273 C   0  0  0  0  0  0  0  0  0  0  0  0
  -92.9054   29.6953   -5.0631 C   0  0  0  0  0  0  0  0  0  0  0  0
  -94.0682   29.2376   -5.0585 O   0  0  0  0  0  0  0  0  0  0  0  0
  -92.0291   29.2380   -6.0430 O   0  0  0  0  0  0  0  0  0  0  0  0
  -92.3204   28.9270   -6.9400 H   0  0  0  0  0  0  0  0  0  0  0  0
 44 45  1  0  0  0
 45 42  1  0  0  0
 42 43  1  0  0  0
 42 29  1  0  0  0
 29 30  1  0  0  0
 30 31  1  0  0  0
 31 32  2  0  0  0
 31 34  1  0  0  0
 34 35  1  0  0  0
 35 36  1  0  0  0
 36 37  2  0  0  0
 37 38  1  0  0  0
 38 39  2  0  0  0
 39 40  1  0  0  0
 40 41  2  0  0  0
 29 25  1  0  0  0
 25 26  2  0  0  0
 25 27  1  0  0  0
 27  1  1  0  0  0
  1 46  1  0  0  0
 46 47  1  0  0  0
 47 48  1  0  0  0
 48 49  2  0  0  0
 48 50  1  0  0  0
  1  2  1  0  0  0
  2  3  2  0  0  0
  2  4  1  0  0  0
  4  5  1  0  0  0
  5  6  1  0  0  0
  6  7  1  0  0  0
  7  8  1  0  0  0
  8  9  1  0  0  0
  9 10  2  0  0  0
  9 11  1  0  0  0
 11 13  1  0  0  0
 13 18  1  0  0  0
 18 19  1  0  0  0
 19 20  2  0  0  0
 20 21  1  0  0  0
 21 22  2  0  0  0
 22 23  1  0  0  0
 23 24  2  0  0  0
 13 14  1  0  0  0
 14 15  2  0  0  0
 14 16  1  0  0  0
 16 17  1  0  0  0
 41 36  1  0  0  0
  8  4  1  0  0  0
 24 19  1  0  0  0
 30 33  1  0  0  0
 27 28  1  0  0  0
 50 51  1  0  0  0
 11 12  1  0  0  0
M  END
> <minimizedAffinity>
-7.93413

> <CNNscore>
0.1033262089

> <CNNaffinity>
6.4112267494

> <CNN_VS>
0.6624477506

> <CNNaffinity_variance>
0.6040306091

$$$$
[H]OC(=O)C([H])([H])C([H])([H])[C@@]([H])(C(=O)N1C([H])([H])C([H])([H])C([H])([H])[C@@]1([H])C(=O)N([H])[C@]([H])(C(=O)OC([H])([H])[H])C([H])([H])c1c([H])c([H])c([H])c([H])c1[H])N([H])C(=O)[C@@]([H])(N([H])C(=O)OC([H])([H])c1c([H])c([H])c([H])c([H])c1[H])[C@@]([H])(C([H])([H])[H])C([H])([H])C([H])([H])[H]


 51 53  0  0  0  0  0  0  0  0999 V2000
  -89.2519   27.2341   -1.9578 C   0  0  0  0  0  0  0  0  0  0  0  0
  -88.6086   28.4760   -2.2807 C   0  0  0  0  0  0  0  0  0  0  0  0
  -87.2854   28.2572   -2.5107 O   0  0  0  0  0  0  0  0  0  0  0  0
  -88.9025   29.8155   -2.4235 N   0  0  0  0  0  0  0  0  0  0  0  0
  -87.8687   30.8103   -2.8290 C   0  0  0  0  0  0  0  0  0  0  0  0
  -88.0093   31.8132   -1.7030 C   0  0  0  0  0  0  0  0  0  0  0  0
  -89.4830   31.8578   -1.4810 C   0  0  0  0  0  0  0  0  0  0  0  0
  -90.0512   30.6147   -2.2142 C   0  0  0  0  0  0  0  0  0  0  0  0
  -90.6979   31.1571   -3.4206 C   0  0  0  0  0  0  0  0  0  0  0  0
  -90.5432   30.6019   -4.5212 O   0  0  0  0  0  0  0  0  0  0  0  0
  -91.4989   32.3208   -3.3243 N   0  0  0  0  0  0  0  0  0  0  0  0
  -91.6666   32.8138   -2.4208 H   0  0  0  0  0  0  0  0  0  0  0  0
  -92.1239   32.8684   -4.5447 C   0  0  0  0  0  0  0  0  0  0  0  0
  -93.0084   31.8707   -5.1586 C   0  0  0  0  0  0  0  0  0  0  0  0
  -93.0855   31.8049   -6.4424 O   0  0  0  0  0  0  0  0  0  0  0  0
  -93.7775   30.9767   -4.4817 O   0  0  0  0  0  0  0  0  0  0  0  0
  -95.2111   30.9784   -4.5665 C   0  0  0  0  0  0  0  0  0  0  0  0
  -91.0346   33.2766   -5.4828 C   0  0  0  0  0  0  0  0  0  0  0  0
  -89.9740   34.1096   -4.9308 C   0  0  0  0  0  0  0  0  0  0  0  0
  -90.3630   35.2945   -4.3100 C   0  0  0  0  0  0  0  0  0  0  0  0
  -89.3978   36.0892   -3.7616 C   0  0  0  0  0  0  0  0  0  0  0  0
  -88.0588   35.7611   -3.8000 C   0  0  0  0  0  0  0  0  0  0  0  0
  -87.7015   34.5572   -4.4335 C   0  0  0  0  0  0  0  0  0  0  0  0
  -88.6500   33.7566   -4.9848 C   0  0  0  0  0  0  0  0  0  0  0  0
  -88.6763   26.3095    0.3421 C   0  0  0  0  0  0  0  0  0  0  0  0
  -88.0926   25.3553   -0.2931 O   0  0  0  0  0  0  0  0  0  0  0  0
  -89.2876   27.3018   -0.4259 N   0  0  0  0  0  0  0  0  0  0  0  0
  -89.7847   28.1059   -0.0013 H   0  0  0  0  0  0  0  0  0  0  0  0
  -88.6301   26.2269    1.7876 C   0  0  0  0  0  0  0  0  0  0  0  0
  -87.7968   27.2405    2.3812 N   0  0  0  0  0  0  0  0  0  0  0  0
  -86.6971   27.9247    1.8496 C   0  0  0  0  0  0  0  0  0  0  0  0
  -86.1781   27.8025    0.7247 O   0  0  0  0  0  0  0  0  0  0  0  0
  -88.0513   27.5268    3.3982 H   0  0  0  0  0  0  0  0  0  0  0  0
  -86.0445   28.8972    2.6568 O   0  0  0  0  0  0  0  0  0  0  0  0
  -84.6599   29.1171    2.5801 C   0  0  0  0  0  0  0  0  0  0  0  0
  -84.2608   30.2396    1.7395 C   0  0  0  0  0  0  0  0  0  0  0  0
  -82.9221   30.4024    1.3979 C   0  0  0  0  0  0  0  0  0  0  0  0
  -82.4724   31.4354    0.6169 C   0  0  0  0  0  0  0  0  0  0  0  0
  -83.3776   32.3754    0.1328 C   0  0  0  0  0  0  0  0  0  0  0  0
  -84.7108   32.2219    0.4668 C   0  0  0  0  0  0  0  0  0  0  0  0
  -85.1466   31.1745    1.2550 C   0  0  0  0  0  0  0  0  0  0  0  0
  -89.9645   26.2184    2.4999 C   0  0  0  0  0  0  0  0  0  0  0  0
  -90.3611   24.8460    3.0244 C   0  0  0  0  0  0  0  0  0  0  0  0
  -90.6045   26.5423    4.9164 C   0  0  0  0  0  0  0  0  0  0  0  0
  -89.8098   27.0842    3.7441 C   0  0  0  0  0  0  0  0  0  0  0  0
  -90.5375   26.7584   -2.4247 C   0  0  0  0  0  0  0  0  0  0  0  0
  -91.6768   27.7117   -2.5849 C   0  0  0  0  0  0  0  0  0  0  0  0
  -92.3713   27.5037   -3.9086 C   0  0  0  0  0  0  0  0  0  0  0  0
  -93.0766   26.4882   -4.0899 O   0  0  0  0  0  0  0  0  0  0  0  0
  -92.2584   28.4138   -4.9556 O   0  0  0  0  0  0  0  0  0  0  0  0
  -92.9642   28.5565   -5.6393 H   0  0  0  0  0  0  0  0  0  0  0  0
 44 45  1  0  0  0
 45 42  1  0  0  0
 42 43  1  0  0  0
 42 29  1  0  0  0
 29 30  1  0  0  0
 30 31  1  0  0  0
 31 32  2  0  0  0
 31 34  1  0  0  0
 34 35  1  0  0  0
 35 36  1  0  0  0
 36 37  2  0  0  0
 37 38  1  0  0  0
 38 39  2  0  0  0
 39 40  1  0  0  0
 40 41  2  0  0  0
 29 25  1  0  0  0
 25 26  2  0  0  0
 25 27  1  0  0  0
 27  1  1  0  0  0
  1 46  1  0  0  0
 46 47  1  0  0  0
 47 48  1  0  0  0
 48 49  2  0  0  0
 48 50  1  0  0  0
  1  2  1  0  0  0
  2  3  2  0  0  0
  2  4  1  0  0  0
  4  5  1  0  0  0
  5  6  1  0  0  0
  6  7  1  0  0  0
  7  8  1  0  0  0
  8  9  1  0  0  0
  9 10  2  0  0  0
  9 11  1  0  0  0
 11 13  1  0  0  0
 13 18  1  0  0  0
 18 19  1  0  0  0
 19 20  2  0  0  0
 20 21  1  0  0  0
 21 22  2  0  0  0
 22 23  1  0  0  0
 23 24  2  0  0  0
 13 14  1  0  0  0
 14 15  2  0  0  0
 14 16  1  0  0  0
 16 17  1  0  0  0
 41 36  1  0  0  0
  8  4  1  0  0  0
 24 19  1  0  0  0
 30 33  1  0  0  0
 27 28  1  0  0  0
 50 51  1  0  0  0
 11 12  1  0  0  0
M  END
> <minimizedAffinity>
-8.15524

> <CNNscore>
0.1023610756

> <CNNaffinity>
6.5247983932

> <CNN_VS>
0.6678853631

> <CNNaffinity_variance>
0.8640592694

$$$$
[H]OC(=O)C([H])([H])C([H])([H])[C@@]([H])(C(=O)N1C([H])([H])C([H])([H])C([H])([H])[C@@]1([H])C(=O)N([H])[C@]([H])(C(=O)OC([H])([H])[H])C([H])([H])c1c([H])c([H])c([H])c([H])c1[H])N([H])C(=O)[C@@]([H])(N([H])C(=O)OC([H])([H])c1c([H])c([H])c([H])c([H])c1[H])[C@@]([H])(C([H])([H])[H])C([H])([H])C([H])([H])[H]


 51 53  0  0  0  0  0  0  0  0999 V2000
  -88.6000   27.0203   -1.1232 C   0  0  0  0  0  0  0  0  0  0  0  0
  -89.9054   26.5582   -0.7456 C   0  0  0  0  0  0  0  0  0  0  0  0
  -90.0074   26.5401    0.6112 O   0  0  0  0  0  0  0  0  0  0  0  0
  -91.0810   26.1210   -1.3182 N   0  0  0  0  0  0  0  0  0  0  0  0
  -92.2685   25.7516   -0.4958 C   0  0  0  0  0  0  0  0  0  0  0  0
  -92.5340   24.3573   -1.0240 C   0  0  0  0  0  0  0  0  0  0  0  0
  -92.2681   24.4999   -2.4841 C   0  0  0  0  0  0  0  0  0  0  0  0
  -91.5068   25.8425   -2.6384 C   0  0  0  0  0  0  0  0  0  0  0  0
  -92.4968   26.7679   -3.2142 C   0  0  0  0  0  0  0  0  0  0  0  0
  -93.6073   26.3512   -3.5836 O   0  0  0  0  0  0  0  0  0  0  0  0
  -92.1783   28.1410   -3.3491 N   0  0  0  0  0  0  0  0  0  0  0  0
  -91.2641   28.5381   -3.0426 H   0  0  0  0  0  0  0  0  0  0  0  0
  -93.1705   29.0553   -3.9486 C   0  0  0  0  0  0  0  0  0  0  0  0
  -92.8354   29.3255   -5.3519 C   0  0  0  0  0  0  0  0  0  0  0  0
  -93.1927   30.4450   -5.8788 O   0  0  0  0  0  0  0  0  0  0  0  0
  -92.1586   28.4826   -6.1768 O   0  0  0  0  0  0  0  0  0  0  0  0
  -92.8053   27.4043   -6.8708 C   0  0  0  0  0  0  0  0  0  0  0  0
  -93.1891   30.3146   -3.1442 C   0  0  0  0  0  0  0  0  0  0  0  0
  -94.4647   30.6921   -2.5495 C   0  0  0  0  0  0  0  0  0  0  0  0
  -94.7827   32.0484   -2.5503 C   0  0  0  0  0  0  0  0  0  0  0  0
  -95.9799   32.4365   -2.0214 C   0  0  0  0  0  0  0  0  0  0  0  0
  -96.8807   31.5375   -1.4900 C   0  0  0  0  0  0  0  0  0  0  0  0
  -96.5281   30.1759   -1.5065 C   0  0  0  0  0  0  0  0  0  0  0  0
  -95.3402   29.7743   -2.0280 C   0  0  0  0  0  0  0  0  0  0  0  0
  -88.6678   29.1991   -2.4362 C   0  0  0  0  0  0  0  0  0  0  0  0
  -88.3199   28.4876   -3.4498 O   0  0  0  0  0  0  0  0  0  0  0  0
  -88.8315   28.5334   -1.2204 N   0  0  0  0  0  0  0  0  0  0  0  0
  -89.1059   29.0249   -0.3502 H   0  0  0  0  0  0  0  0  0  0  0  0
  -88.8394   30.6153   -2.6876 C   0  0  0  0  0  0  0  0  0  0  0  0
  -87.9148   31.4331   -1.9455 N   0  0  0  0  0  0  0  0  0  0  0  0
  -88.1586   32.3962   -0.9592 C   0  0  0  0  0  0  0  0  0  0  0  0
  -89.2515   32.7746   -0.4986 O   0  0  0  0  0  0  0  0  0  0  0  0
  -86.8632   31.2889   -2.1783 H   0  0  0  0  0  0  0  0  0  0  0  0
  -87.0496   33.0662   -0.3723 O   0  0  0  0  0  0  0  0  0  0  0  0
  -85.7573   32.9770   -0.9138 C   0  0  0  0  0  0  0  0  0  0  0  0
  -84.8089   32.2060   -0.1189 C   0  0  0  0  0  0  0  0  0  0  0  0
  -83.4428   32.3882   -0.3086 C   0  0  0  0  0  0  0  0  0  0  0  0
  -82.4933   31.6958    0.3973 C   0  0  0  0  0  0  0  0  0  0  0  0
  -82.8904   30.7635    1.3516 C   0  0  0  0  0  0  0  0  0  0  0  0
  -84.2464   30.5755    1.5476 C   0  0  0  0  0  0  0  0  0  0  0  0
  -85.1898   31.2823    0.8273 C   0  0  0  0  0  0  0  0  0  0  0  0
  -88.8106   31.0454   -4.1375 C   0  0  0  0  0  0  0  0  0  0  0  0
  -90.0383   31.8411   -4.5567 C   0  0  0  0  0  0  0  0  0  0  0  0
  -88.1062   33.4014   -4.6918 C   0  0  0  0  0  0  0  0  0  0  0  0
  -87.6443   32.0138   -4.2910 C   0  0  0  0  0  0  0  0  0  0  0  0
  -87.3485   26.7926   -0.4308 C   0  0  0  0  0  0  0  0  0  0  0  0
  -86.6721   27.9164    0.2846 C   0  0  0  0  0  0  0  0  0  0  0  0
  -86.5146   27.6033    1.7526 C   0  0  0  0  0  0  0  0  0  0  0  0
  -87.4531   27.8367    2.5441 O   0  0  0  0  0  0  0  0  0  0  0  0
  -85.3461   27.0536    2.2717 O   0  0  0  0  0  0  0  0  0  0  0  0
  -85.3218   26.4703    3.0750 H   0  0  0  0  0  0  0  0  0  0  0  0
 44 45  1  0  0  0
 45 42  1  0  0  0
 42 43  1  0  0  0
 42 29  1  0  0  0
 29 30  1  0  0  0
 30 31  1  0  0  0
 31 32  2  0  0  0
 31 34  1  0  0  0
 34 35  1  0  0  0
 35 36  1  0  0  0
 36 37  2  0  0  0
 37 38  1  0  0  0
 38 39  2  0  0  0
 39 40  1  0  0  0
 40 41  2  0  0  0
 29 25  1  0  0  0
 25 26  2  0  0  0
 25 27  1  0  0  0
 27  1  1  0  0  0
  1 46  1  0  0  0
 46 47  1  0  0  0
 47 48  1  0  0  0
 48 49  2  0  0  0
 48 50  1  0  0  0
  1  2  1  0  0  0
  2  3  2  0  0  0
  2  4  1  0  0  0
  4  5  1  0  0  0
  5  6  1  0  0  0
  6  7  1  0  0  0
  7  8  1  0  0  0
  8  9  1  0  0  0
  9 10  2  0  0  0
  9 11  1  0  0  0
 11 13  1  0  0  0
 13 18  1  0  0  0
 18 19  1  0  0  0
 19 20  2  0  0  0
 20 21  1  0  0  0
 21 22  2  0  0  0
 22 23  1  0  0  0
 23 24  2  0  0  0
 13 14  1  0  0  0
 14 15  2  0  0  0
 14 16  1  0  0  0
 16 17  1  0  0  0
 41 36  1  0  0  0
  8  4  1  0  0  0
 24 19  1  0  0  0
 30 33  1  0  0  0
 27 28  1  0  0  0
 50 51  1  0  0  0
 11 12  1  0  0  0
M  END
> <minimizedAffinity>
-7.93500

> <CNNscore>
0.0874672458

> <CNNaffinity>
6.4396524429

> <CNN_VS>
0.5632586479

> <CNNaffinity_variance>
0.6745835543

$$$$
[H]Oc1c([H])c([H])c([H])c(C2([H])C([H])([H])N(C([H])([H])C([H])([H])C([H])([H])C([H])([H])C([H])([H])C([H])([H])C([H])([H])C([H])([H])C([H])([H])[H])C([H])([H])C2([H])[H])c1[H]


 22 23  0  0  0  0  0  0  0  0999 V2000
  -84.5961   32.9782   -0.2560 N   0  0  0  0  0  0  0  0  0  0  0  0
  -83.2240   32.5783   -0.4090 C   0  0  0  0  0  0  0  0  0  0  0  0
  -82.9281   31.6144    0.7124 C   0  0  0  0  0  0  0  0  0  0  0  0
  -84.2699   31.3334    1.3235 C   0  0  0  0  0  0  0  0  0  0  0  0
  -85.2573   31.7971    0.3189 C   0  0  0  0  0  0  0  0  0  0  0  0
  -84.4301   29.8930    1.6686 C   0  0  0  0  0  0  0  0  0  0  0  0
  -85.6684   29.3145    1.4953 C   0  0  0  0  0  0  0  0  0  0  0  0
  -85.8720   27.9643    1.7997 C   0  0  0  0  0  0  0  0  0  0  0  0
  -84.8098   27.2276    2.2756 C   0  0  0  0  0  0  0  0  0  0  0  0
  -83.5886   27.8251    2.4395 C   0  0  0  0  0  0  0  0  0  0  0  0
  -82.5352   27.0650    2.9193 O   0  0  0  0  0  0  0  0  0  0  0  0
  -83.3675   29.1708    2.1410 C   0  0  0  0  0  0  0  0  0  0  0  0
  -82.6499   26.0823    3.1511 H   0  0  0  0  0  0  0  0  0  0  0  0
  -85.2457   33.3793   -1.4596 C   0  0  0  0  0  0  0  0  0  0  0  0
  -86.7356   33.4727   -1.3735 C   0  0  0  0  0  0  0  0  0  0  0  0
  -87.4588   32.7954   -2.4833 C   0  0  0  0  0  0  0  0  0  0  0  0
  -88.1071   33.6918   -3.4849 C   0  0  0  0  0  0  0  0  0  0  0  0
  -88.0816   35.1693   -3.0174 C   0  0  0  0  0  0  0  0  0  0  0  0
  -87.4714   36.0303   -4.0532 C   0  0  0  0  0  0  0  0  0  0  0  0
  -88.2457   36.4089   -5.2397 C   0  0  0  0  0  0  0  0  0  0  0  0
  -87.0383   37.4642   -7.1157 C   0  0  0  0  0  0  0  0  0  0  0  0
  -87.6797   36.2255   -6.5999 C   0  0  0  0  0  0  0  0  0  0  0  0
 21 22  1  0  0  0
 22 20  1  0  0  0
 20 19  1  0  0  0
 19 18  1  0  0  0
 18 17  1  0  0  0
 17 16  1  0  0  0
 16 15  1  0  0  0
 15 14  1  0  0  0
 14  1  1  0  0  0
  1  2  1  0  0  0
  2  3  1  0  0  0
  3  4  1  0  0  0
  4  6  1  0  0  0
  6  7  2  0  0  0
  7  8  1  0  0  0
  8  9  2  0  0  0
  9 10  1  0  0  0
 10 11  1  0  0  0
 10 12  2  0  0  0
  4  5  1  0  0  0
  5  1  1  0  0  0
 12  6  1  0  0  0
 11 13  1  0  0  0
M  END
> <minimizedAffinity>
-7.07671

> <CNNscore>
0.7062425613

> <CNNaffinity>
6.2538771629

> <CNN_VS>
4.4167542458

> <CNNaffinity_variance>
0.3762955368

$$$$
[H]Oc1c([H])c([H])c([H])c(C2([H])C([H])([H])N(C([H])([H])C([H])([H])C([H])([H])C([H])([H])C([H])([H])C([H])([H])C([H])([H])C([H])([H])C([H])([H])[H])C([H])([H])C2([H])[H])c1[H]


 22 23  0  0  0  0  0  0  0  0999 V2000
  -85.7443   33.1408   -0.5235 N   0  0  0  0  0  0  0  0  0  0  0  0
  -84.4376   33.0361   -1.1134 C   0  0  0  0  0  0  0  0  0  0  0  0
  -83.5621   32.3409   -0.1012 C   0  0  0  0  0  0  0  0  0  0  0  0
  -84.5193   31.8649    0.9523 C   0  0  0  0  0  0  0  0  0  0  0  0
  -85.8591   31.9426    0.3214 C   0  0  0  0  0  0  0  0  0  0  0  0
  -84.1829   30.4933    1.4265 C   0  0  0  0  0  0  0  0  0  0  0  0
  -82.8586   30.1873    1.6513 C   0  0  0  0  0  0  0  0  0  0  0  0
  -82.4885   28.9154    2.1012 C   0  0  0  0  0  0  0  0  0  0  0  0
  -83.4748   27.9778    2.3142 C   0  0  0  0  0  0  0  0  0  0  0  0
  -84.7843   28.3057    2.0836 C   0  0  0  0  0  0  0  0  0  0  0  0
  -85.7589   27.3471    2.3045 O   0  0  0  0  0  0  0  0  0  0  0  0
  -85.1715   29.5695    1.6345 C   0  0  0  0  0  0  0  0  0  0  0  0
  -85.5236   26.4137    2.6300 H   0  0  0  0  0  0  0  0  0  0  0  0
  -86.8229   33.2031   -1.4532 C   0  0  0  0  0  0  0  0  0  0  0  0
  -86.4956   33.8540   -2.7590 C   0  0  0  0  0  0  0  0  0  0  0  0
  -87.6522   34.5123   -3.4242 C   0  0  0  0  0  0  0  0  0  0  0  0
  -87.3544   35.2222   -4.7026 C   0  0  0  0  0  0  0  0  0  0  0  0
  -88.4352   36.2868   -5.0199 C   0  0  0  0  0  0  0  0  0  0  0  0
  -87.8161   37.4957   -5.6046 C   0  0  0  0  0  0  0  0  0  0  0  0
  -87.0860   38.4331   -4.7450 C   0  0  0  0  0  0  0  0  0  0  0  0
  -87.6361   38.8499   -2.3755 C   0  0  0  0  0  0  0  0  0  0  0  0
  -87.8141   39.2977   -3.7825 C   0  0  0  0  0  0  0  0  0  0  0  0
 21 22  1  0  0  0
 22 20  1  0  0  0
 20 19  1  0  0  0
 19 18  1  0  0  0
 18 17  1  0  0  0
 17 16  1  0  0  0
 16 15  1  0  0  0
 15 14  1  0  0  0
 14  1  1  0  0  0
  1  2  1  0  0  0
  2  3  1  0  0  0
  3  4  1  0  0  0
  4  6  1  0  0  0
  6  7  2  0  0  0
  7  8  1  0  0  0
  8  9  2  0  0  0
  9 10  1  0  0  0
 10 11  1  0  0  0
 10 12  2  0  0  0
  4  5  1  0  0  0
  5  1  1  0  0  0
 12  6  1  0  0  0
 11 13  1  0  0  0
M  END
> <minimizedAffinity>
-6.54658

> <CNNscore>
0.5603556037

> <CNNaffinity>
5.8475618362

> <CNN_VS>
3.2767140865

> <CNNaffinity_variance>
0.1656131744

$$$$
[H]Oc1c([H])c([H])c([H])c(C2([H])C([H])([H])N(C([H])([H])C([H])([H])C([H])([H])C([H])([H])C([H])([H])C([H])([H])C([H])([H])C([H])([H])C([H])([H])[H])C([H])([H])C2([H])[H])c1[H]


 22 23  0  0  0  0  0  0  0  0999 V2000
  -88.0168   29.1853   -1.1139 N   0  0  0  0  0  0  0  0  0  0  0  0
  -88.1216   30.5485   -1.5575 C   0  0  0  0  0  0  0  0  0  0  0  0
  -87.2983   31.3769   -0.6035 C   0  0  0  0  0  0  0  0  0  0  0  0
  -86.5565   30.3654    0.2208 C   0  0  0  0  0  0  0  0  0  0  0  0
  -86.6683   29.0940   -0.5343 C   0  0  0  0  0  0  0  0  0  0  0  0
  -85.1436   30.7738    0.4581 C   0  0  0  0  0  0  0  0  0  0  0  0
  -84.3311   29.9246    1.1770 C   0  0  0  0  0  0  0  0  0  0  0  0
  -82.9951   30.2579    1.4246 C   0  0  0  0  0  0  0  0  0  0  0  0
  -82.5109   31.4509    0.9350 C   0  0  0  0  0  0  0  0  0  0  0  0
  -83.3380   32.2783    0.2233 C   0  0  0  0  0  0  0  0  0  0  0  0
  -82.8295   33.4726   -0.2592 O   0  0  0  0  0  0  0  0  0  0  0  0
  -84.6733   31.9619   -0.0330 C   0  0  0  0  0  0  0  0  0  0  0  0
  -81.8642   33.7449   -0.0960 H   0  0  0  0  0  0  0  0  0  0  0  0
  -88.1913   28.2040   -2.1328 C   0  0  0  0  0  0  0  0  0  0  0  0
  -89.3301   27.2600   -1.9136 C   0  0  0  0  0  0  0  0  0  0  0  0
  -89.0570   26.1886   -0.9181 C   0  0  0  0  0  0  0  0  0  0  0  0
  -90.0667   26.0335    0.1697 C   0  0  0  0  0  0  0  0  0  0  0  0
  -89.4878   26.4667    1.5407 C   0  0  0  0  0  0  0  0  0  0  0  0
  -89.6405   25.3820    2.5340 C   0  0  0  0  0  0  0  0  0  0  0  0
  -89.6752   25.6996    3.9653 C   0  0  0  0  0  0  0  0  0  0  0  0
  -90.0651   27.9980    4.7755 C   0  0  0  0  0  0  0  0  0  0  0  0
  -90.6672   26.6663    4.4997 C   0  0  0  0  0  0  0  0  0  0  0  0
 21 22  1  0  0  0
 22 20  1  0  0  0
 20 19  1  0  0  0
 19 18  1  0  0  0
 18 17  1  0  0  0
 17 16  1  0  0  0
 16 15  1  0  0  0
 15 14  1  0  0  0
 14  1  1  0  0  0
  1  2  1  0  0  0
  2  3  1  0  0  0
  3  4  1  0  0  0
  4  6  1  0  0  0
  6  7  2  0  0  0
  7  8  1  0  0  0
  8  9  2  0  0  0
  9 10  1  0  0  0
 10 11  1  0  0  0
 10 12  2  0  0  0
  4  5  1  0  0  0
  5  1  1  0  0  0
 12  6  1  0  0  0
 11 13  1  0  0  0
M  END
> <minimizedAffinity>
-6.82215

> <CNNscore>
0.4603739977

> <CNNaffinity>
5.9582672119

> <CNN_VS>
2.7430312634

> <CNNaffinity_variance>
0.0436986014

$$$$
[H]Oc1c([H])c([H])c([H])c(C2([H])C([H])([H])N(C([H])([H])C([H])([H])C([H])([H])C([H])([H])C([H])([H])C([H])([H])C([H])([H])C([H])([H])C([H])([H])[H])C([H])([H])C2([H])[H])c1[H]


 22 23  0  0  0  0  0  0  0  0999 V2000
  -88.0280   28.0899    0.5789 N   0  0  0  0  0  0  0  0  0  0  0  0
  -87.5628   28.0351   -0.7800 C   0  0  0  0  0  0  0  0  0  0  0  0
  -86.7178   29.2654   -0.9965 C   0  0  0  0  0  0  0  0  0  0  0  0
  -86.5561   29.8503    0.3764 C   0  0  0  0  0  0  0  0  0  0  0  0
  -86.9428   28.7634    1.3081 C   0  0  0  0  0  0  0  0  0  0  0  0
  -85.1694   30.3433    0.6079 C   0  0  0  0  0  0  0  0  0  0  0  0
  -84.3270   29.5797    1.3860 C   0  0  0  0  0  0  0  0  0  0  0  0
  -83.0136   29.9944    1.6311 C   0  0  0  0  0  0  0  0  0  0  0  0
  -82.5820   31.1803    1.0789 C   0  0  0  0  0  0  0  0  0  0  0  0
  -83.4380   31.9219    0.3092 C   0  0  0  0  0  0  0  0  0  0  0  0
  -82.9824   33.1107   -0.2357 O   0  0  0  0  0  0  0  0  0  0  0  0
  -84.7515   31.5235    0.0543 C   0  0  0  0  0  0  0  0  0  0  0  0
  -82.0347   33.4409   -0.0760 H   0  0  0  0  0  0  0  0  0  0  0  0
  -88.3180   26.8253    1.1690 C   0  0  0  0  0  0  0  0  0  0  0  0
  -89.0287   26.8885    2.4831 C   0  0  0  0  0  0  0  0  0  0  0  0
  -90.1777   25.9513    2.6058 C   0  0  0  0  0  0  0  0  0  0  0  0
  -90.3041   25.2387    3.9109 C   0  0  0  0  0  0  0  0  0  0  0  0
  -88.9296   25.1054    4.6146 C   0  0  0  0  0  0  0  0  0  0  0  0
  -88.7492   23.7369    5.1447 C   0  0  0  0  0  0  0  0  0  0  0  0
  -87.5456   23.4021    5.9128 C   0  0  0  0  0  0  0  0  0  0  0  0
  -86.8306   22.7595    8.1859 C   0  0  0  0  0  0  0  0  0  0  0  0
  -87.4120   23.8270    7.3291 C   0  0  0  0  0  0  0  0  0  0  0  0
 21 22  1  0  0  0
 22 20  1  0  0  0
 20 19  1  0  0  0
 19 18  1  0  0  0
 18 17  1  0  0  0
 17 16  1  0  0  0
 16 15  1  0  0  0
 15 14  1  0  0  0
 14  1  1  0  0  0
  1  2  1  0  0  0
  2  3  1  0  0  0
  3  4  1  0  0  0
  4  6  1  0  0  0
  6  7  2  0  0  0
  7  8  1  0  0  0
  8  9  2  0  0  0
  9 10  1  0  0  0
 10 11  1  0  0  0
 10 12  2  0  0  0
  4  5  1  0  0  0
  5  1  1  0  0  0
 12  6  1  0  0  0
 11 13  1  0  0  0
M  END
> <minimizedAffinity>
-7.00053

> <CNNscore>
0.4168539941

> <CNNaffinity>
5.6884884834

> <CNN_VS>
2.3712692261

> <CNNaffinity_variance>
0.1637652069

$$$$
[H]Oc1c([H])c([H])c([H])c(C2([H])C([H])([H])N(C([H])([H])C([H])([H])C([H])([H])C([H])([H])C([H])([H])C([H])([H])C([H])([H])C([H])([H])C([H])([H])[H])C([H])([H])C2([H])[H])c1[H]


 22 23  0  0  0  0  0  0  0  0999 V2000
  -84.4774   33.0107   -0.1424 N   0  0  0  0  0  0  0  0  0  0  0  0
  -83.1747   32.5360   -0.5215 C   0  0  0  0  0  0  0  0  0  0  0  0
  -82.7513   31.5475    0.5358 C   0  0  0  0  0  0  0  0  0  0  0  0
  -83.9864   31.3369    1.3623 C   0  0  0  0  0  0  0  0  0  0  0  0
  -85.0994   31.8636    0.5359 C   0  0  0  0  0  0  0  0  0  0  0  0
  -84.1682   29.9048    1.7306 C   0  0  0  0  0  0  0  0  0  0  0  0
  -85.4309   29.3620    1.6356 C   0  0  0  0  0  0  0  0  0  0  0  0
  -85.6557   28.0211    1.9650 C   0  0  0  0  0  0  0  0  0  0  0  0
  -84.5895   27.2571    2.3856 C   0  0  0  0  0  0  0  0  0  0  0  0
  -83.3438   27.8193    2.4721 C   0  0  0  0  0  0  0  0  0  0  0  0
  -82.2868   27.0322    2.8973 O   0  0  0  0  0  0  0  0  0  0  0  0
  -83.1013   29.1552    2.1476 C   0  0  0  0  0  0  0  0  0  0  0  0
  -82.4165   26.0553    3.1453 H   0  0  0  0  0  0  0  0  0  0  0  0
  -85.2945   33.4577   -1.2213 C   0  0  0  0  0  0  0  0  0  0  0  0
  -86.7368   33.0759   -1.1227 C   0  0  0  0  0  0  0  0  0  0  0  0
  -87.5920   33.6193   -2.2121 C   0  0  0  0  0  0  0  0  0  0  0  0
  -87.3645   33.0450   -3.5706 C   0  0  0  0  0  0  0  0  0  0  0  0
  -88.4229   31.9646   -3.9093 C   0  0  0  0  0  0  0  0  0  0  0  0
  -87.8026   30.6227   -3.9391 C   0  0  0  0  0  0  0  0  0  0  0  0
  -88.1892   29.6152   -2.9460 C   0  0  0  0  0  0  0  0  0  0  0  0
  -88.3758   29.8339   -0.4948 C   0  0  0  0  0  0  0  0  0  0  0  0
  -87.4817   29.5294   -1.6437 C   0  0  0  0  0  0  0  0  0  0  0  0
 21 22  1  0  0  0
 22 20  1  0  0  0
 20 19  1  0  0  0
 19 18  1  0  0  0
 18 17  1  0  0  0
 17 16  1  0  0  0
 16 15  1  0  0  0
 15 14  1  0  0  0
 14  1  1  0  0  0
  1  2  1  0  0  0
  2  3  1  0  0  0
  3  4  1  0  0  0
  4  6  1  0  0  0
  6  7  2  0  0  0
  7  8  1  0  0  0
  8  9  2  0  0  0
  9 10  1  0  0  0
 10 11  1  0  0  0
 10 12  2  0  0  0
  4  5  1  0  0  0
  5  1  1  0  0  0
 12  6  1  0  0  0
 11 13  1  0  0  0
M  END
> <minimizedAffinity>
-7.56534

> <CNNscore>
0.3792408705

> <CNNaffinity>
6.2267751694

> <CNN_VS>
2.3614475727

> <CNNaffinity_variance>
0.3065356016

$$$$
[H]Oc1c([H])c([H])c([H])c(C2([H])C([H])([H])N(C([H])([H])C([H])([H])C([H])([H])C([H])([H])C([H])([H])C([H])([H])C([H])([H])C([H])([H])C([H])([H])[H])C([H])([H])C2([H])[H])c1[H]


 22 23  0  0  0  0  0  0  0  0999 V2000
  -87.1977   28.9284    0.5505 N   0  0  0  0  0  0  0  0  0  0  0  0
  -88.6167   28.8920    0.3235 C   0  0  0  0  0  0  0  0  0  0  0  0
  -88.9895   30.2183   -0.2896 C   0  0  0  0  0  0  0  0  0  0  0  0
  -87.6719   30.8660   -0.6017 C   0  0  0  0  0  0  0  0  0  0  0  0
  -86.6767   29.7685   -0.5384 C   0  0  0  0  0  0  0  0  0  0  0  0
  -87.6919   31.5519   -1.9240 C   0  0  0  0  0  0  0  0  0  0  0  0
  -87.3061   32.8734   -1.9793 C   0  0  0  0  0  0  0  0  0  0  0  0
  -87.3023   33.5633   -3.1963 C   0  0  0  0  0  0  0  0  0  0  0  0
  -87.6917   32.8941   -4.3356 C   0  0  0  0  0  0  0  0  0  0  0  0
  -88.0709   31.5807   -4.2552 C   0  0  0  0  0  0  0  0  0  0  0  0
  -88.4586   30.9281   -5.4134 O   0  0  0  0  0  0  0  0  0  0  0  0
  -88.0810   30.8770   -3.0496 C   0  0  0  0  0  0  0  0  0  0  0  0
  -88.4682   31.4006   -6.3130 H   0  0  0  0  0  0  0  0  0  0  0  0
  -86.5541   27.6567    0.5534 C   0  0  0  0  0  0  0  0  0  0  0  0
  -85.8900   27.2869    1.8411 C   0  0  0  0  0  0  0  0  0  0  0  0
  -85.0335   28.3569    2.4200 C   0  0  0  0  0  0  0  0  0  0  0  0
  -83.5978   28.0060    2.6257 C   0  0  0  0  0  0  0  0  0  0  0  0
  -82.6629   29.0916    2.0342 C   0  0  0  0  0  0  0  0  0  0  0  0
  -83.4489   30.2528    1.5648 C   0  0  0  0  0  0  0  0  0  0  0  0
  -82.7623   31.4372    1.0389 C   0  0  0  0  0  0  0  0  0  0  0  0
  -83.9247   32.9768   -0.5004 C   0  0  0  0  0  0  0  0  0  0  0  0
  -82.9551   31.8564   -0.3722 C   0  0  0  0  0  0  0  0  0  0  0  0
 21 22  1  0  0  0
 22 20  1  0  0  0
 20 19  1  0  0  0
 19 18  1  0  0  0
 18 17  1  0  0  0
 17 16  1  0  0  0
 16 15  1  0  0  0
 15 14  1  0  0  0
 14  1  1  0  0  0
  1  2  1  0  0  0
  2  3  1  0  0  0
  3  4  1  0  0  0
  4  6  1  0  0  0
  6  7  2  0  0  0
  7  8  1  0  0  0
  8  9  2  0  0  0
  9 10  1  0  0  0
 10 11  1  0  0  0
 10 12  2  0  0  0
  4  5  1  0  0  0
  5  1  1  0  0  0
 12  6  1  0  0  0
 11 13  1  0  0  0
M  END
> <minimizedAffinity>
-7.68325

> <CNNscore>
0.3670805693

> <CNNaffinity>
5.6547603607

> <CNN_VS>
2.0757527351

> <CNNaffinity_variance>
0.5333130956

$$$$
[H]Oc1c([H])c([H])c([H])c(C2([H])C([H])([H])N(C([H])([H])C([H])([H])C([H])([H])C([H])([H])C([H])([H])C([H])([H])C([H])([H])C([H])([H])C([H])([H])[H])C([H])([H])C2([H])[H])c1[H]


 22 23  0  0  0  0  0  0  0  0999 V2000
  -88.7534   28.2041   -0.5945 N   0  0  0  0  0  0  0  0  0  0  0  0
  -88.3955   28.0677   -1.9799 C   0  0  0  0  0  0  0  0  0  0  0  0
  -88.3767   29.4598   -2.5596 C   0  0  0  0  0  0  0  0  0  0  0  0
  -88.5026   30.3604   -1.3654 C   0  0  0  0  0  0  0  0  0  0  0  0
  -88.1862   29.5019   -0.1983 C   0  0  0  0  0  0  0  0  0  0  0  0
  -87.6068   31.5462   -1.4697 C   0  0  0  0  0  0  0  0  0  0  0  0
  -86.8374   31.8807   -0.3769 C   0  0  0  0  0  0  0  0  0  0  0  0
  -85.9761   32.9821   -0.4232 C   0  0  0  0  0  0  0  0  0  0  0  0
  -85.9141   33.7231   -1.5827 C   0  0  0  0  0  0  0  0  0  0  0  0
  -86.6886   33.3709   -2.6557 C   0  0  0  0  0  0  0  0  0  0  0  0
  -86.6099   34.1304   -3.8109 O   0  0  0  0  0  0  0  0  0  0  0  0
  -87.5536   32.2755   -2.6270 C   0  0  0  0  0  0  0  0  0  0  0  0
  -85.9954   34.9370   -3.8769 H   0  0  0  0  0  0  0  0  0  0  0  0
  -88.2739   27.1671    0.2577 C   0  0  0  0  0  0  0  0  0  0  0  0
  -86.7883   27.1194    0.4216 C   0  0  0  0  0  0  0  0  0  0  0  0
  -86.3224   27.2165    1.8312 C   0  0  0  0  0  0  0  0  0  0  0  0
  -85.4953   28.4126    2.1660 C   0  0  0  0  0  0  0  0  0  0  0  0
  -84.1031   28.0002    2.7081 C   0  0  0  0  0  0  0  0  0  0  0  0
  -83.0490   28.8716    2.1459 C   0  0  0  0  0  0  0  0  0  0  0  0
  -83.3617   30.2575    1.7821 C   0  0  0  0  0  0  0  0  0  0  0  0
  -82.6025   32.0116    0.2208 C   0  0  0  0  0  0  0  0  0  0  0  0
  -83.2893   30.7006    0.3670 C   0  0  0  0  0  0  0  0  0  0  0  0
 21 22  1  0  0  0
 22 20  1  0  0  0
 20 19  1  0  0  0
 19 18  1  0  0  0
 18 17  1  0  0  0
 17 16  1  0  0  0
 16 15  1  0  0  0
 15 14  1  0  0  0
 14  1  1  0  0  0
  1  2  1  0  0  0
  2  3  1  0  0  0
  3  4  1  0  0  0
  4  6  1  0  0  0
  6  7  2  0  0  0
  7  8  1  0  0  0
  8  9  2  0  0  0
  9 10  1  0  0  0
 10 11  1  0  0  0
 10 12  2  0  0  0
  4  5  1  0  0  0
  5  1  1  0  0  0
 12  6  1  0  0  0
 11 13  1  0  0  0
M  END
> <minimizedAffinity>
-7.14707

> <CNNscore>
0.3515001535

> <CNNaffinity>
5.6468052864

> <CNN_VS>
1.9848529100

> <CNNaffinity_variance>
0.6171914935

$$$$
[H]Oc1c([H])c([H])c([H])c(C2([H])C([H])([H])N(C([H])([H])C([H])([H])C([H])([H])C([H])([H])C([H])([H])C([H])([H])C([H])([H])C([H])([H])C([H])([H])[H])C([H])([H])C2([H])[H])c1[H]


 22 23  0  0  0  0  0  0  0  0999 V2000
  -84.5374   33.0884   -0.2018 N   0  0  0  0  0  0  0  0  0  0  0  0
  -83.2335   32.6602   -0.6289 C   0  0  0  0  0  0  0  0  0  0  0  0
  -82.7281   31.7037    0.4218 C   0  0  0  0  0  0  0  0  0  0  0  0
  -83.9189   31.4560    1.3013 C   0  0  0  0  0  0  0  0  0  0  0  0
  -85.0849   31.9271    0.5154 C   0  0  0  0  0  0  0  0  0  0  0  0
  -84.0281   30.0231    1.6941 C   0  0  0  0  0  0  0  0  0  0  0  0
  -82.8783   29.3569    2.0578 C   0  0  0  0  0  0  0  0  0  0  0  0
  -82.9256   28.0119    2.4396 C   0  0  0  0  0  0  0  0  0  0  0  0
  -84.1441   27.3695    2.4440 C   0  0  0  0  0  0  0  0  0  0  0  0
  -85.2730   28.0529    2.0783 C   0  0  0  0  0  0  0  0  0  0  0  0
  -86.4870   27.3868    2.0901 O   0  0  0  0  0  0  0  0  0  0  0  0
  -85.2444   29.3948    1.6945 C   0  0  0  0  0  0  0  0  0  0  0  0
  -86.5557   26.4098    2.3611 H   0  0  0  0  0  0  0  0  0  0  0  0
  -85.4152   33.4881   -1.2512 C   0  0  0  0  0  0  0  0  0  0  0  0
  -86.6804   32.6976   -1.3530 C   0  0  0  0  0  0  0  0  0  0  0  0
  -87.8352   33.4551   -1.9065 C   0  0  0  0  0  0  0  0  0  0  0  0
  -89.1611   32.7746   -1.8301 C   0  0  0  0  0  0  0  0  0  0  0  0
  -89.3104   31.9802   -0.5076 C   0  0  0  0  0  0  0  0  0  0  0  0
  -89.6300   30.5637   -0.7871 C   0  0  0  0  0  0  0  0  0  0  0  0
  -88.7238   29.5049   -0.3304 C   0  0  0  0  0  0  0  0  0  0  0  0
  -87.8381   28.8784   -2.5472 C   0  0  0  0  0  0  0  0  0  0  0  0
  -87.5177   29.1514   -1.1207 C   0  0  0  0  0  0  0  0  0  0  0  0
 21 22  1  0  0  0
 22 20  1  0  0  0
 20 19  1  0  0  0
 19 18  1  0  0  0
 18 17  1  0  0  0
 17 16  1  0  0  0
 16 15  1  0  0  0
 15 14  1  0  0  0
 14  1  1  0  0  0
  1  2  1  0  0  0
  2  3  1  0  0  0
  3  4  1  0  0  0
  4  6  1  0  0  0
  6  7  2  0  0  0
  7  8  1  0  0  0
  8  9  2  0  0  0
  9 10  1  0  0  0
 10 11  1  0  0  0
 10 12  2  0  0  0
  4  5  1  0  0  0
  5  1  1  0  0  0
 12  6  1  0  0  0
 11 13  1  0  0  0
M  END
> <minimizedAffinity>
-7.38441

> <CNNscore>
0.3208797872

> <CNNaffinity>
5.9882254601

> <CNN_VS>
1.9215005636

> <CNNaffinity_variance>
0.4003881514

$$$$
[H]Oc1c([H])c([H])c([H])c(C2([H])C([H])([H])N(C([H])([H])C([H])([H])C([H])([H])C([H])([H])C([H])([H])C([H])([H])C([H])([H])C([H])([H])C([H])([H])[H])C([H])([H])C2([H])[H])c1[H]


 22 23  0  0  0  0  0  0  0  0999 V2000
  -88.2935   28.1636   -0.0091 N   0  0  0  0  0  0  0  0  0  0  0  0
  -88.5675   28.0376   -1.4146 C   0  0  0  0  0  0  0  0  0  0  0  0
  -89.0403   29.3903   -1.8847 C   0  0  0  0  0  0  0  0  0  0  0  0
  -88.7743   30.3009   -0.7215 C   0  0  0  0  0  0  0  0  0  0  0  0
  -87.8360   29.5523    0.1492 C   0  0  0  0  0  0  0  0  0  0  0  0
  -88.2296   31.6159   -1.1615 C   0  0  0  0  0  0  0  0  0  0  0  0
  -86.9280   31.9257   -0.8329 C   0  0  0  0  0  0  0  0  0  0  0  0
  -86.3659   33.1452   -1.2253 C   0  0  0  0  0  0  0  0  0  0  0  0
  -87.1405   34.0275   -1.9456 C   0  0  0  0  0  0  0  0  0  0  0  0
  -88.4317   33.6970   -2.2601 C   0  0  0  0  0  0  0  0  0  0  0  0
  -89.1917   34.5996   -2.9849 O   0  0  0  0  0  0  0  0  0  0  0  0
  -89.0087   32.4850   -1.8767 C   0  0  0  0  0  0  0  0  0  0  0  0
  -88.8140   35.4942   -3.2842 H   0  0  0  0  0  0  0  0  0  0  0  0
  -87.3206   27.2548    0.4999 C   0  0  0  0  0  0  0  0  0  0  0  0
  -86.7367   27.6299    1.8244 C   0  0  0  0  0  0  0  0  0  0  0  0
  -85.3142   27.2323    2.0034 C   0  0  0  0  0  0  0  0  0  0  0  0
  -84.3824   28.3136    2.4385 C   0  0  0  0  0  0  0  0  0  0  0  0
  -85.1520   29.4923    3.0872 C   0  0  0  0  0  0  0  0  0  0  0  0
  -84.9059   30.7451    2.3413 C   0  0  0  0  0  0  0  0  0  0  0  0
  -84.0077   30.7426    1.1819 C   0  0  0  0  0  0  0  0  0  0  0  0
  -82.9455   32.4144   -0.2903 C   0  0  0  0  0  0  0  0  0  0  0  0
  -82.9436   31.7694    1.0498 C   0  0  0  0  0  0  0  0  0  0  0  0
 21 22  1  0  0  0
 22 20  1  0  0  0
 20 19  1  0  0  0
 19 18  1  0  0  0
 18 17  1  0  0  0
 17 16  1  0  0  0
 16 15  1  0  0  0
 15 14  1  0  0  0
 14  1  1  0  0  0
  1  2  1  0  0  0
  2  3  1  0  0  0
  3  4  1  0  0  0
  4  6  1  0  0  0
  6  7  2  0  0  0
  7  8  1  0  0  0
  8  9  2  0  0  0
  9 10  1  0  0  0
 10 11  1  0  0  0
 10 12  2  0  0  0
  4  5  1  0  0  0
  5  1  1  0  0  0
 12  6  1  0  0  0
 11 13  1  0  0  0
M  END
> <minimizedAffinity>
-6.80977

> <CNNscore>
0.3198536634

> <CNNaffinity>
5.6668019295

> <CNN_VS>
1.8125473261

> <CNNaffinity_variance>
0.3920904100

$$$$
[H]OC(=O)/C([H])=C(\[H])c1c([H])c([H])c(Oc2c(-c3c([H])c([H])c(OC(F)(F)F)c([H])c3C([H])([H])[H])c(=O)oc3c([H])c(OC([H])([H])C([H])([H])[H])c([H])c([H])c23)c([H])c1[H]


 39 42  0  0  0  0  0  0  0  0999 V2000
  -84.2535   29.8719    1.3606 C   0  0  0  0  0  0  0  0  0  0  0  0
  -85.0649   28.8171    1.0211 C   0  0  0  0  0  0  0  0  0  0  0  0
  -86.0521   29.0214    0.0821 C   0  0  0  0  0  0  0  0  0  0  0  0
  -86.2489   30.2465   -0.5235 C   0  0  0  0  0  0  0  0  0  0  0  0
  -87.2511   30.4627   -1.4848 C   0  0  0  0  0  0  0  0  0  0  0  0
  -87.3151   31.7413   -1.9996 C   0  0  0  0  0  0  0  0  0  0  0  0
  -86.4606   32.7727   -1.6154 C   0  0  0  0  0  0  0  0  0  0  0  0
  -86.5620   33.9326   -2.1210 O   0  0  0  0  0  0  0  0  0  0  0  0
  -85.5550   32.5104   -0.7222 O   0  0  0  0  0  0  0  0  0  0  0  0
  -85.4410   31.3053   -0.1901 C   0  0  0  0  0  0  0  0  0  0  0  0
  -84.4464   31.0916    0.7593 C   0  0  0  0  0  0  0  0  0  0  0  0
  -88.3231   32.0877   -2.9799 C   0  0  0  0  0  0  0  0  0  0  0  0
  -87.9964   32.0862   -4.3035 C   0  0  0  0  0  0  0  0  0  0  0  0
  -88.9283   32.4064   -5.2580 C   0  0  0  0  0  0  0  0  0  0  0  0
  -90.2045   32.7318   -4.8679 C   0  0  0  0  0  0  0  0  0  0  0  0
  -90.5374   32.7338   -3.5253 C   0  0  0  0  0  0  0  0  0  0  0  0
  -89.5937   32.4114   -2.5862 C   0  0  0  0  0  0  0  0  0  0  0  0
  -90.0248   32.4388   -1.1646 C   0  0  0  0  0  0  0  0  0  0  0  0
  -91.1553   33.0585   -5.8419 O   0  0  0  0  0  0  0  0  0  0  0  0
  -91.1360   34.3282   -6.4847 C   0  0  0  0  0  0  0  0  0  0  0  0
  -90.3006   35.1549   -5.7749 F   0  0  0  0  0  0  0  0  0  0  0  0
  -90.6725   34.1807   -7.7789 F   0  0  0  0  0  0  0  0  0  0  0  0
  -92.4068   34.8780   -6.5640 F   0  0  0  0  0  0  0  0  0  0  0  0
  -83.2632   29.6821    2.2979 O   0  0  0  0  0  0  0  0  0  0  0  0
  -82.8546   27.4008    2.8955 C   0  0  0  0  0  0  0  0  0  0  0  0
  -82.3102   28.6397    2.2217 C   0  0  0  0  0  0  0  0  0  0  0  0
  -88.0424   29.4263   -1.8104 O   0  0  0  0  0  0  0  0  0  0  0  0
  -88.7847   28.5243   -1.1416 C   0  0  0  0  0  0  0  0  0  0  0  0
  -89.7154   28.7923   -0.1729 C   0  0  0  0  0  0  0  0  0  0  0  0
  -90.4511   27.8092    0.4881 C   0  0  0  0  0  0  0  0  0  0  0  0
  -90.2611   26.4664    0.1766 C   0  0  0  0  0  0  0  0  0  0  0  0
  -89.3323   26.1702   -0.7931 C   0  0  0  0  0  0  0  0  0  0  0  0
  -88.6188   27.1572   -1.4310 C   0  0  0  0  0  0  0  0  0  0  0  0
  -91.0384   25.4595    0.8779 C   0  0  0  0  0  0  0  0  0  0  0  0
  -90.5311   24.5865    1.7242 C   0  0  0  0  0  0  0  0  0  0  0  0
  -91.4302   23.6124    2.3732 C   0  0  0  0  0  0  0  0  0  0  0  0
  -91.6983   23.6764    3.5926 O   0  0  0  0  0  0  0  0  0  0  0  0
  -92.0030   22.5951    1.6372 O   0  0  0  0  0  0  0  0  0  0  0  0
  -93.0094   22.5460    1.4412 H   0  0  0  0  0  0  0  0  0  0  0  0
 25 26  1  0  0  0
 26 24  1  0  0  0
 24  1  1  0  0  0
  1  2  2  0  0  0
  2  3  1  0  0  0
  3  4  2  0  0  0
  4  5  1  0  0  0
  5 27  1  0  0  0
 27 28  1  0  0  0
 28 29  2  0  0  0
 29 30  1  0  0  0
 30 31  2  0  0  0
 31 34  1  0  0  0
 34 35  2  0  0  0
 35 36  1  0  0  0
 36 37  2  0  0  0
 36 38  1  0  0  0
 31 32  1  0  0  0
 32 33  2  0  0  0
  5  6  2  0  0  0
  6 12  1  0  0  0
 12 13  2  0  0  0
 13 14  1  0  0  0
 14 15  2  0  0  0
 15 19  1  0  0  0
 19 20  1  0  0  0
 20 21  1  0  0  0
 20 22  1  0  0  0
 20 23  1  0  0  0
 15 16  1  0  0  0
 16 17  2  0  0  0
 17 18  1  0  0  0
  6  7  1  0  0  0
  7  8  2  0  0  0
  7  9  1  0  0  0
  9 10  1  0  0  0
 10 11  2  0  0  0
 11  1  1  0  0  0
 10  4  1  0  0  0
 33 28  1  0  0  0
 17 12  1  0  0  0
 38 39  1  0  0  0
M  END
> <minimizedAffinity>
-8.19626

> <CNNscore>
0.1069698855

> <CNNaffinity>
6.5597105026

> <CNN_VS>
0.7016915083

> <CNNaffinity_variance>
0.3289950788

$$$$
[H]OC(=O)/C([H])=C(\[H])c1c([H])c([H])c(Oc2c(-c3c([H])c([H])c(OC(F)(F)F)c([H])c3C([H])([H])[H])c(=O)oc3c([H])c(OC([H])([H])C([H])([H])[H])c([H])c([H])c23)c([H])c1[H]


 39 42  0  0  0  0  0  0  0  0999 V2000
  -93.1805   30.1675   -4.6458 C   0  0  0  0  0  0  0  0  0  0  0  0
  -93.5336   29.9872   -3.3309 C   0  0  0  0  0  0  0  0  0  0  0  0
  -92.5432   30.0134   -2.3736 C   0  0  0  0  0  0  0  0  0  0  0  0
  -91.2153   30.2138   -2.6944 C   0  0  0  0  0  0  0  0  0  0  0  0
  -90.1992   30.2455   -1.7240 C   0  0  0  0  0  0  0  0  0  0  0  0
  -88.9241   30.4608   -2.2052 C   0  0  0  0  0  0  0  0  0  0  0  0
  -88.6273   30.6387   -3.5550 C   0  0  0  0  0  0  0  0  0  0  0  0
  -87.4354   30.8340   -3.9455 O   0  0  0  0  0  0  0  0  0  0  0  0
  -89.6099   30.5982   -4.4034 O   0  0  0  0  0  0  0  0  0  0  0  0
  -90.8549   30.3959   -4.0066 C   0  0  0  0  0  0  0  0  0  0  0  0
  -91.8605   30.3678   -4.9679 C   0  0  0  0  0  0  0  0  0  0  0  0
  -87.7937   30.4900   -1.3005 C   0  0  0  0  0  0  0  0  0  0  0  0
  -87.1478   29.3276   -1.0002 C   0  0  0  0  0  0  0  0  0  0  0  0
  -86.0718   29.3208   -0.1494 C   0  0  0  0  0  0  0  0  0  0  0  0
  -85.6453   30.5038    0.4033 C   0  0  0  0  0  0  0  0  0  0  0  0
  -86.2998   31.6840    0.0997 C   0  0  0  0  0  0  0  0  0  0  0  0
  -87.3726   31.6715   -0.7520 C   0  0  0  0  0  0  0  0  0  0  0  0
  -88.0259   32.9772   -1.0276 C   0  0  0  0  0  0  0  0  0  0  0  0
  -84.5473   30.4968    1.2715 O   0  0  0  0  0  0  0  0  0  0  0  0
  -83.2554   30.8863    0.8185 C   0  0  0  0  0  0  0  0  0  0  0  0
  -82.9911   32.1420    1.3065 F   0  0  0  0  0  0  0  0  0  0  0  0
  -82.3148   29.9866    1.2848 F   0  0  0  0  0  0  0  0  0  0  0  0
  -83.1782   30.8799   -0.5662 F   0  0  0  0  0  0  0  0  0  0  0  0
  -94.1599   30.1432   -5.6129 O   0  0  0  0  0  0  0  0  0  0  0  0
  -94.2707   28.1407   -6.9191 C   0  0  0  0  0  0  0  0  0  0  0  0
  -94.9553   29.0058   -5.8855 C   0  0  0  0  0  0  0  0  0  0  0  0
  -90.5522   30.0664   -0.4396 O   0  0  0  0  0  0  0  0  0  0  0  0
  -90.6020   29.0298    0.4178 C   0  0  0  0  0  0  0  0  0  0  0  0
  -90.8797   29.0932    1.7577 C   0  0  0  0  0  0  0  0  0  0  0  0
  -90.9120   27.9792    2.5959 C   0  0  0  0  0  0  0  0  0  0  0  0
  -90.6537   26.7114    2.0836 C   0  0  0  0  0  0  0  0  0  0  0  0
  -90.3723   26.6203    0.7407 C   0  0  0  0  0  0  0  0  0  0  0  0
  -90.3462   27.7334   -0.0658 C   0  0  0  0  0  0  0  0  0  0  0  0
  -90.6925   25.5655    2.9752 C   0  0  0  0  0  0  0  0  0  0  0  0
  -90.1771   24.3866    2.6919 C   0  0  0  0  0  0  0  0  0  0  0  0
  -90.2830   23.3010    3.6861 C   0  0  0  0  0  0  0  0  0  0  0  0
  -91.3824   22.7820    3.9779 O   0  0  0  0  0  0  0  0  0  0  0  0
  -89.1545   22.8282    4.3245 O   0  0  0  0  0  0  0  0  0  0  0  0
  -88.7770   21.8868    4.1670 H   0  0  0  0  0  0  0  0  0  0  0  0
 25 26  1  0  0  0
 26 24  1  0  0  0
 24  1  1  0  0  0
  1  2  2  0  0  0
  2  3  1  0  0  0
  3  4  2  0  0  0
  4  5  1  0  0  0
  5 27  1  0  0  0
 27 28  1  0  0  0
 28 29  2  0  0  0
 29 30  1  0  0  0
 30 31  2  0  0  0
 31 34  1  0  0  0
 34 35  2  0  0  0
 35 36  1  0  0  0
 36 37  2  0  0  0
 36 38  1  0  0  0
 31 32  1  0  0  0
 32 33  2  0  0  0
  5  6  2  0  0  0
  6 12  1  0  0  0
 12 13  2  0  0  0
 13 14  1  0  0  0
 14 15  2  0  0  0
 15 19  1  0  0  0
 19 20  1  0  0  0
 20 21  1  0  0  0
 20 22  1  0  0  0
 20 23  1  0  0  0
 15 16  1  0  0  0
 16 17  2  0  0  0
 17 18  1  0  0  0
  6  7  1  0  0  0
  7  8  2  0  0  0
  7  9  1  0  0  0
  9 10  1  0  0  0
 10 11  2  0  0  0
 11  1  1  0  0  0
 10  4  1  0  0  0
 33 28  1  0  0  0
 17 12  1  0  0  0
 38 39  1  0  0  0
M  END
> <minimizedAffinity>
-9.02502

> <CNNscore>
0.0740097761

> <CNNaffinity>
6.3225312233

> <CNN_VS>
0.4679291248

> <CNNaffinity_variance>
0.3433128297

$$$$
[H]OC(=O)/C([H])=C(\[H])c1c([H])c([H])c(Oc2c(-c3c([H])c([H])c(OC(F)(F)F)c([H])c3C([H])([H])[H])c(=O)oc3c([H])c(OC([H])([H])C([H])([H])[H])c([H])c([H])c23)c([H])c1[H]


 39 42  0  0  0  0  0  0  0  0999 V2000
  -84.7531   31.0095    1.2011 C   0  0  0  0  0  0  0  0  0  0  0  0
  -85.6415   31.6948    0.4090 C   0  0  0  0  0  0  0  0  0  0  0  0
  -86.8028   31.0624    0.0226 C   0  0  0  0  0  0  0  0  0  0  0  0
  -87.0981   29.7689    0.4049 C   0  0  0  0  0  0  0  0  0  0  0  0
  -88.2819   29.1176    0.0182 C   0  0  0  0  0  0  0  0  0  0  0  0
  -88.4314   27.8285    0.4870 C   0  0  0  0  0  0  0  0  0  0  0  0
  -87.4929   27.1848    1.2910 C   0  0  0  0  0  0  0  0  0  0  0  0
  -87.6795   25.9964    1.6961 O   0  0  0  0  0  0  0  0  0  0  0  0
  -86.4187   27.8395    1.6140 O   0  0  0  0  0  0  0  0  0  0  0  0
  -86.2154   29.0779    1.1976 C   0  0  0  0  0  0  0  0  0  0  0  0
  -85.0445   29.7230    1.5836 C   0  0  0  0  0  0  0  0  0  0  0  0
  -89.6006   27.0504    0.1338 C   0  0  0  0  0  0  0  0  0  0  0  0
  -90.6795   27.0495    0.9672 C   0  0  0  0  0  0  0  0  0  0  0  0
  -91.8039   26.3259    0.6608 C   0  0  0  0  0  0  0  0  0  0  0  0
  -91.8361   25.5954   -0.5020 C   0  0  0  0  0  0  0  0  0  0  0  0
  -90.7422   25.5953   -1.3486 C   0  0  0  0  0  0  0  0  0  0  0  0
  -89.6279   26.3239   -1.0262 C   0  0  0  0  0  0  0  0  0  0  0  0
  -88.4920   26.2718   -1.9826 C   0  0  0  0  0  0  0  0  0  0  0  0
  -92.9836   24.8571   -0.8147 O   0  0  0  0  0  0  0  0  0  0  0  0
  -93.1087   23.4970   -0.4141 C   0  0  0  0  0  0  0  0  0  0  0  0
  -93.0920   23.4514    0.9579 F   0  0  0  0  0  0  0  0  0  0  0  0
  -94.3005   22.9852   -0.8930 F   0  0  0  0  0  0  0  0  0  0  0  0
  -92.0879   22.7167   -0.9360 F   0  0  0  0  0  0  0  0  0  0  0  0
  -83.5884   31.6291    1.5943 O   0  0  0  0  0  0  0  0  0  0  0  0
  -82.8528   32.8245   -0.3443 C   0  0  0  0  0  0  0  0  0  0  0  0
  -82.4849   31.8292    0.7323 C   0  0  0  0  0  0  0  0  0  0  0  0
  -89.1454   29.7939   -0.7584 O   0  0  0  0  0  0  0  0  0  0  0  0
  -89.0543   30.6768   -1.7705 C   0  0  0  0  0  0  0  0  0  0  0  0
  -88.4325   30.4751   -2.9743 C   0  0  0  0  0  0  0  0  0  0  0  0
  -88.3689   31.4349   -3.9840 C   0  0  0  0  0  0  0  0  0  0  0  0
  -88.9576   32.6823   -3.8005 C   0  0  0  0  0  0  0  0  0  0  0  0
  -89.5888   32.9103   -2.6003 C   0  0  0  0  0  0  0  0  0  0  0  0
  -89.6383   31.9481   -1.6196 C   0  0  0  0  0  0  0  0  0  0  0  0
  -88.8787   33.6666   -4.8657 C   0  0  0  0  0  0  0  0  0  0  0  0
  -87.9955   34.6431   -4.9102 C   0  0  0  0  0  0  0  0  0  0  0  0
  -88.0206   35.5801   -6.0503 C   0  0  0  0  0  0  0  0  0  0  0  0
  -87.0223   36.2664   -6.3591 O   0  0  0  0  0  0  0  0  0  0  0  0
  -89.1633   35.7209   -6.8114 O   0  0  0  0  0  0  0  0  0  0  0  0
  -89.2251   35.4116   -7.7882 H   0  0  0  0  0  0  0  0  0  0  0  0
 25 26  1  0  0  0
 26 24  1  0  0  0
 24  1  1  0  0  0
  1  2  2  0  0  0
  2  3  1  0  0  0
  3  4  2  0  0  0
  4  5  1  0  0  0
  5 27  1  0  0  0
 27 28  1  0  0  0
 28 29  2  0  0  0
 29 30  1  0  0  0
 30 31  2  0  0  0
 31 34  1  0  0  0
 34 35  2  0  0  0
 35 36  1  0  0  0
 36 37  2  0  0  0
 36 38  1  0  0  0
 31 32  1  0  0  0
 32 33  2  0  0  0
  5  6  2  0  0  0
  6 12  1  0  0  0
 12 13  2  0  0  0
 13 14  1  0  0  0
 14 15  2  0  0  0
 15 19  1  0  0  0
 19 20  1  0  0  0
 20 21  1  0  0  0
 20 22  1  0  0  0
 20 23  1  0  0  0
 15 16  1  0  0  0
 16 17  2  0  0  0
 17 18  1  0  0  0
  6  7  1  0  0  0
  7  8  2  0  0  0
  7  9  1  0  0  0
  9 10  1  0  0  0
 10 11  2  0  0  0
 11  1  1  0  0  0
 10  4  1  0  0  0
 33 28  1  0  0  0
 17 12  1  0  0  0
 38 39  1  0  0  0
M  END
> <minimizedAffinity>
-7.57895

> <CNNscore>
0.0572659597

> <CNNaffinity>
6.6358857155

> <CNN_VS>
0.3800103664

> <CNNaffinity_variance>
0.2181220949

$$$$
[H]OC(=O)/C([H])=C(\[H])c1c([H])c([H])c(Oc2c(-c3c([H])c([H])c(OC(F)(F)F)c([H])c3C([H])([H])[H])c(=O)oc3c([H])c(OC([H])([H])C([H])([H])[H])c([H])c([H])c23)c([H])c1[H]


 39 42  0  0  0  0  0  0  0  0999 V2000
  -89.1457   36.2261   -4.5033 C   0  0  0  0  0  0  0  0  0  0  0  0
  -90.2318   35.5666   -3.9819 C   0  0  0  0  0  0  0  0  0  0  0  0
  -90.0119   34.4839   -3.1588 C   0  0  0  0  0  0  0  0  0  0  0  0
  -88.7411   34.0450   -2.8448 C   0  0  0  0  0  0  0  0  0  0  0  0
  -88.5078   32.9438   -2.0032 C   0  0  0  0  0  0  0  0  0  0  0  0
  -87.1812   32.6345   -1.7830 C   0  0  0  0  0  0  0  0  0  0  0  0
  -86.1194   33.3440   -2.3406 C   0  0  0  0  0  0  0  0  0  0  0  0
  -84.9155   33.0176   -2.1053 O   0  0  0  0  0  0  0  0  0  0  0  0
  -86.3999   34.3517   -3.1104 O   0  0  0  0  0  0  0  0  0  0  0  0
  -87.6506   34.6999   -3.3612 C   0  0  0  0  0  0  0  0  0  0  0  0
  -87.8804   35.7922   -4.1920 C   0  0  0  0  0  0  0  0  0  0  0  0
  -86.8195   31.5054   -0.9515 C   0  0  0  0  0  0  0  0  0  0  0  0
  -86.3731   31.7258    0.3176 C   0  0  0  0  0  0  0  0  0  0  0  0
  -86.0252   30.6784    1.1324 C   0  0  0  0  0  0  0  0  0  0  0  0
  -86.1304   29.3941    0.6568 C   0  0  0  0  0  0  0  0  0  0  0  0
  -86.5831   29.1689   -0.6308 C   0  0  0  0  0  0  0  0  0  0  0  0
  -86.9259   30.2272   -1.4301 C   0  0  0  0  0  0  0  0  0  0  0  0
  -87.4002   29.9067   -2.8012 C   0  0  0  0  0  0  0  0  0  0  0  0
  -85.7755   28.3254    1.4882 O   0  0  0  0  0  0  0  0  0  0  0  0
  -84.5799   28.3657    2.2595 C   0  0  0  0  0  0  0  0  0  0  0  0
  -84.1270   27.0790    2.4150 F   0  0  0  0  0  0  0  0  0  0  0  0
  -83.6332   29.1271    1.5995 F   0  0  0  0  0  0  0  0  0  0  0  0
  -84.7918   28.9562    3.4964 F   0  0  0  0  0  0  0  0  0  0  0  0
  -89.3508   37.3094   -5.3277 O   0  0  0  0  0  0  0  0  0  0  0  0
  -88.4340   37.3858   -7.5372 C   0  0  0  0  0  0  0  0  0  0  0  0
  -88.3303   37.8906   -6.1160 C   0  0  0  0  0  0  0  0  0  0  0  0
  -89.5754   32.3023   -1.4985 O   0  0  0  0  0  0  0  0  0  0  0  0
  -90.2428   31.1653   -1.7706 C   0  0  0  0  0  0  0  0  0  0  0  0
  -90.8111   30.8207   -2.9684 C   0  0  0  0  0  0  0  0  0  0  0  0
  -91.4953   29.6252   -3.1860 C   0  0  0  0  0  0  0  0  0  0  0  0
  -91.6321   28.7007   -2.1551 C   0  0  0  0  0  0  0  0  0  0  0  0
  -91.0702   29.0224   -0.9421 C   0  0  0  0  0  0  0  0  0  0  0  0
  -90.4001   30.2077   -0.7516 C   0  0  0  0  0  0  0  0  0  0  0  0
  -92.3490   27.4623   -2.4045 C   0  0  0  0  0  0  0  0  0  0  0  0
  -92.2116   26.7310   -3.4917 C   0  0  0  0  0  0  0  0  0  0  0  0
  -92.9997   25.4902   -3.6245 C   0  0  0  0  0  0  0  0  0  0  0  0
  -94.1724   25.4997   -4.0580 O   0  0  0  0  0  0  0  0  0  0  0  0
  -92.4514   24.2750   -3.2680 O   0  0  0  0  0  0  0  0  0  0  0  0
  -92.2286   23.5412   -3.9505 H   0  0  0  0  0  0  0  0  0  0  0  0
 25 26  1  0  0  0
 26 24  1  0  0  0
 24  1  1  0  0  0
  1  2  2  0  0  0
  2  3  1  0  0  0
  3  4  2  0  0  0
  4  5  1  0  0  0
  5 27  1  0  0  0
 27 28  1  0  0  0
 28 29  2  0  0  0
 29 30  1  0  0  0
 30 31  2  0  0  0
 31 34  1  0  0  0
 34 35  2  0  0  0
 35 36  1  0  0  0
 36 37  2  0  0  0
 36 38  1  0  0  0
 31 32  1  0  0  0
 32 33  2  0  0  0
  5  6  2  0  0  0
  6 12  1  0  0  0
 12 13  2  0  0  0
 13 14  1  0  0  0
 14 15  2  0  0  0
 15 19  1  0  0  0
 19 20  1  0  0  0
 20 21  1  0  0  0
 20 22  1  0  0  0
 20 23  1  0  0  0
 15 16  1  0  0  0
 16 17  2  0  0  0
 17 18  1  0  0  0
  6  7  1  0  0  0
  7  8  2  0  0  0
  7  9  1  0  0  0
  9 10  1  0  0  0
 10 11  2  0  0  0
 11  1  1  0  0  0
 10  4  1  0  0  0
 33 28  1  0  0  0
 17 12  1  0  0  0
 38 39  1  0  0  0
M  END
> <minimizedAffinity>
-7.40473

> <CNNscore>
0.0450863838

> <CNNaffinity>
6.1320276260

> <CNN_VS>
0.2764709592

> <CNNaffinity_variance>
0.2916315198

$$$$
[H]OC(=O)/C([H])=C(\[H])c1c([H])c([H])c(Oc2c(-c3c([H])c([H])c(OC(F)(F)F)c([H])c3C([H])([H])[H])c(=O)oc3c([H])c(OC([H])([H])C([H])([H])[H])c([H])c([H])c23)c([H])c1[H]


 39 42  0  0  0  0  0  0  0  0999 V2000
  -84.8885   32.2096    0.2284 C   0  0  0  0  0  0  0  0  0  0  0  0
  -86.0053   31.4805    0.5561 C   0  0  0  0  0  0  0  0  0  0  0  0
  -87.1438   31.6431   -0.2025 C   0  0  0  0  0  0  0  0  0  0  0  0
  -87.1953   32.5113   -1.2748 C   0  0  0  0  0  0  0  0  0  0  0  0
  -88.3512   32.6806   -2.0560 C   0  0  0  0  0  0  0  0  0  0  0  0
  -88.2397   33.5815   -3.0952 C   0  0  0  0  0  0  0  0  0  0  0  0
  -87.0757   34.2926   -3.3799 C   0  0  0  0  0  0  0  0  0  0  0  0
  -87.0259   35.1104   -4.3494 O   0  0  0  0  0  0  0  0  0  0  0  0
  -86.0408   34.0928   -2.6210 O   0  0  0  0  0  0  0  0  0  0  0  0
  -86.0825   33.2426   -1.6091 C   0  0  0  0  0  0  0  0  0  0  0  0
  -84.9365   33.0735   -0.8382 C   0  0  0  0  0  0  0  0  0  0  0  0
  -89.3735   33.8554   -3.9535 C   0  0  0  0  0  0  0  0  0  0  0  0
  -90.1494   34.9490   -3.7069 C   0  0  0  0  0  0  0  0  0  0  0  0
  -91.2287   35.2389   -4.5025 C   0  0  0  0  0  0  0  0  0  0  0  0
  -91.5255   34.4126   -5.5588 C   0  0  0  0  0  0  0  0  0  0  0  0
  -90.7392   33.3026   -5.8101 C   0  0  0  0  0  0  0  0  0  0  0  0
  -89.6653   33.0288   -5.0050 C   0  0  0  0  0  0  0  0  0  0  0  0
  -88.8702   31.8179   -5.3354 C   0  0  0  0  0  0  0  0  0  0  0  0
  -92.6269   34.7085   -6.3706 O   0  0  0  0  0  0  0  0  0  0  0  0
  -92.4789   34.8514   -7.7789 C   0  0  0  0  0  0  0  0  0  0  0  0
  -91.1968   35.2707   -8.0345 F   0  0  0  0  0  0  0  0  0  0  0  0
  -92.7124   33.6338   -8.3910 F   0  0  0  0  0  0  0  0  0  0  0  0
  -93.3950   35.7539   -8.2981 F   0  0  0  0  0  0  0  0  0  0  0  0
  -83.7441   32.0574    0.9782 O   0  0  0  0  0  0  0  0  0  0  0  0
  -82.8585   29.9412    1.6606 C   0  0  0  0  0  0  0  0  0  0  0  0
  -82.7482   31.0951    0.6903 C   0  0  0  0  0  0  0  0  0  0  0  0
  -89.4407   31.9653   -1.7281 O   0  0  0  0  0  0  0  0  0  0  0  0
  -90.0235   30.8313   -2.1600 C   0  0  0  0  0  0  0  0  0  0  0  0
  -91.2726   30.7155   -2.7104 C   0  0  0  0  0  0  0  0  0  0  0  0
  -91.8229   29.5069   -3.1358 C   0  0  0  0  0  0  0  0  0  0  0  0
  -91.0962   28.3265   -3.0132 C   0  0  0  0  0  0  0  0  0  0  0  0
  -89.8388   28.4154   -2.4639 C   0  0  0  0  0  0  0  0  0  0  0  0
  -89.3175   29.6189   -2.0515 C   0  0  0  0  0  0  0  0  0  0  0  0
  -91.6895   27.0793   -3.4628 C   0  0  0  0  0  0  0  0  0  0  0  0
  -92.1268   26.1326   -2.6576 C   0  0  0  0  0  0  0  0  0  0  0  0
  -92.7104   24.9091   -3.2414 C   0  0  0  0  0  0  0  0  0  0  0  0
  -93.8070   24.9258   -3.8416 O   0  0  0  0  0  0  0  0  0  0  0  0
  -92.0487   23.7026   -3.1359 O   0  0  0  0  0  0  0  0  0  0  0  0
  -91.6396   23.2178   -3.9429 H   0  0  0  0  0  0  0  0  0  0  0  0
 25 26  1  0  0  0
 26 24  1  0  0  0
 24  1  1  0  0  0
  1  2  2  0  0  0
  2  3  1  0  0  0
  3  4  2  0  0  0
  4  5  1  0  0  0
  5 27  1  0  0  0
 27 28  1  0  0  0
 28 29  2  0  0  0
 29 30  1  0  0  0
 30 31  2  0  0  0
 31 34  1  0  0  0
 34 35  2  0  0  0
 35 36  1  0  0  0
 36 37  2  0  0  0
 36 38  1  0  0  0
 31 32  1  0  0  0
 32 33  2  0  0  0
  5  6  2  0  0  0
  6 12  1  0  0  0
 12 13  2  0  0  0
 13 14  1  0  0  0
 14 15  2  0  0  0
 15 19  1  0  0  0
 19 20  1  0  0  0
 20 21  1  0  0  0
 20 22  1  0  0  0
 20 23  1  0  0  0
 15 16  1  0  0  0
 16 17  2  0  0  0
 17 18  1  0  0  0
  6  7  1  0  0  0
  7  8  2  0  0  0
  7  9  1  0  0  0
  9 10  1  0  0  0
 10 11  2  0  0  0
 11  1  1  0  0  0
 10  4  1  0  0  0
 33 28  1  0  0  0
 17 12  1  0  0  0
 38 39  1  0  0  0
M  END
> <minimizedAffinity>
-7.55818

> <CNNscore>
0.0448281541

> <CNNaffinity>
6.0735116005

> <CNN_VS>
0.2722643018

> <CNNaffinity_variance>
0.2209866345

$$$$
[H]OC(=O)/C([H])=C(\[H])c1c([H])c([H])c(Oc2c(-c3c([H])c([H])c(OC(F)(F)F)c([H])c3C([H])([H])[H])c(=O)oc3c([H])c(OC([H])([H])C([H])([H])[H])c([H])c([H])c23)c([H])c1[H]


 39 42  0  0  0  0  0  0  0  0999 V2000
  -84.2325   30.4122    1.2445 C   0  0  0  0  0  0  0  0  0  0  0  0
  -84.5946   31.7339    1.1538 C   0  0  0  0  0  0  0  0  0  0  0  0
  -85.6785   32.0675    0.3716 C   0  0  0  0  0  0  0  0  0  0  0  0
  -86.4064   31.1194   -0.3195 C   0  0  0  0  0  0  0  0  0  0  0  0
  -87.5154   31.4505   -1.1167 C   0  0  0  0  0  0  0  0  0  0  0  0
  -88.1393   30.3881   -1.7380 C   0  0  0  0  0  0  0  0  0  0  0  0
  -87.7250   29.0642   -1.6064 C   0  0  0  0  0  0  0  0  0  0  0  0
  -88.3352   28.1228   -2.2003 O   0  0  0  0  0  0  0  0  0  0  0  0
  -86.6930   28.8224   -0.8559 O   0  0  0  0  0  0  0  0  0  0  0  0
  -86.0511   29.7961   -0.2328 C   0  0  0  0  0  0  0  0  0  0  0  0
  -84.9551   29.4667    0.5588 C   0  0  0  0  0  0  0  0  0  0  0  0
  -89.2788   30.6107   -2.6035 C   0  0  0  0  0  0  0  0  0  0  0  0
  -90.5371   30.5353   -2.0844 C   0  0  0  0  0  0  0  0  0  0  0  0
  -91.6379   30.7439   -2.8760 C   0  0  0  0  0  0  0  0  0  0  0  0
  -91.4625   31.0318   -4.2076 C   0  0  0  0  0  0  0  0  0  0  0  0
  -90.1864   31.1086   -4.7358 C   0  0  0  0  0  0  0  0  0  0  0  0
  -89.0989   30.8973   -3.9301 C   0  0  0  0  0  0  0  0  0  0  0  0
  -87.7611   30.9931   -4.5695 C   0  0  0  0  0  0  0  0  0  0  0  0
  -92.5858   31.2447   -5.0153 O   0  0  0  0  0  0  0  0  0  0  0  0
  -93.3174   30.1484   -5.5527 C   0  0  0  0  0  0  0  0  0  0  0  0
  -94.0144   30.5947   -6.6481 F   0  0  0  0  0  0  0  0  0  0  0  0
  -92.4386   29.1474   -5.9231 F   0  0  0  0  0  0  0  0  0  0  0  0
  -94.1848   29.6071   -4.6157 F   0  0  0  0  0  0  0  0  0  0  0  0
  -83.1511   30.0647    2.0222 O   0  0  0  0  0  0  0  0  0  0  0  0
  -83.4659   27.8185    2.7864 C   0  0  0  0  0  0  0  0  0  0  0  0
  -82.5765   28.7722    2.0218 C   0  0  0  0  0  0  0  0  0  0  0  0
  -87.8625   32.7461   -1.2021 O   0  0  0  0  0  0  0  0  0  0  0  0
  -87.9445   33.6665   -2.1810 C   0  0  0  0  0  0  0  0  0  0  0  0
  -89.0890   34.2482   -2.6588 C   0  0  0  0  0  0  0  0  0  0  0  0
  -89.1077   35.1959   -3.6817 C   0  0  0  0  0  0  0  0  0  0  0  0
  -87.9187   35.6030   -4.2790 C   0  0  0  0  0  0  0  0  0  0  0  0
  -86.7551   35.0342   -3.8173 C   0  0  0  0  0  0  0  0  0  0  0  0
  -86.7619   34.1014   -2.8073 C   0  0  0  0  0  0  0  0  0  0  0  0
  -87.9622   36.5911   -5.3427 C   0  0  0  0  0  0  0  0  0  0  0  0
  -87.7630   36.3199   -6.6165 C   0  0  0  0  0  0  0  0  0  0  0  0
  -87.8347   37.4164   -7.6018 C   0  0  0  0  0  0  0  0  0  0  0  0
  -88.9052   38.0165   -7.8406 O   0  0  0  0  0  0  0  0  0  0  0  0
  -86.7052   37.8088   -8.2910 O   0  0  0  0  0  0  0  0  0  0  0  0
  -86.2524   38.7191   -8.1488 H   0  0  0  0  0  0  0  0  0  0  0  0
 25 26  1  0  0  0
 26 24  1  0  0  0
 24  1  1  0  0  0
  1  2  2  0  0  0
  2  3  1  0  0  0
  3  4  2  0  0  0
  4  5  1  0  0  0
  5 27  1  0  0  0
 27 28  1  0  0  0
 28 29  2  0  0  0
 29 30  1  0  0  0
 30 31  2  0  0  0
 31 34  1  0  0  0
 34 35  2  0  0  0
 35 36  1  0  0  0
 36 37  2  0  0  0
 36 38  1  0  0  0
 31 32  1  0  0  0
 32 33  2  0  0  0
  5  6  2  0  0  0
  6 12  1  0  0  0
 12 13  2  0  0  0
 13 14  1  0  0  0
 14 15  2  0  0  0
 15 19  1  0  0  0
 19 20  1  0  0  0
 20 21  1  0  0  0
 20 22  1  0  0  0
 20 23  1  0  0  0
 15 16  1  0  0  0
 16 17  2  0  0  0
 17 18  1  0  0  0
  6  7  1  0  0  0
  7  8  2  0  0  0
  7  9  1  0  0  0
  9 10  1  0  0  0
 10 11  2  0  0  0
 11  1  1  0  0  0
 10  4  1  0  0  0
 33 28  1  0  0  0
 17 12  1  0  0  0
 38 39  1  0  0  0
M  END
> <minimizedAffinity>
-8.96755

> <CNNscore>
0.0392015912

> <CNNaffinity>
6.0966935158

> <CNN_VS>
0.2390000820

> <CNNaffinity_variance>
0.3212806880

$$$$
[H]OC(=O)/C([H])=C(\[H])c1c([H])c([H])c(Oc2c(-c3c([H])c([H])c(OC(F)(F)F)c([H])c3C([H])([H])[H])c(=O)oc3c([H])c(OC([H])([H])C([H])([H])[H])c([H])c([H])c23)c([H])c1[H]


 39 42  0  0  0  0  0  0  0  0999 V2000
  -93.8290   28.4771   -3.7258 C   0  0  0  0  0  0  0  0  0  0  0  0
  -93.0441   29.0794   -4.6783 C   0  0  0  0  0  0  0  0  0  0  0  0
  -91.7670   29.4634   -4.3325 C   0  0  0  0  0  0  0  0  0  0  0  0
  -91.2563   29.2624   -3.0656 C   0  0  0  0  0  0  0  0  0  0  0  0
  -89.9536   29.6478   -2.7055 C   0  0  0  0  0  0  0  0  0  0  0  0
  -89.5911   29.3728   -1.4028 C   0  0  0  0  0  0  0  0  0  0  0  0
  -90.4336   28.7564   -0.4799 C   0  0  0  0  0  0  0  0  0  0  0  0
  -90.0502   28.5257    0.7080 O   0  0  0  0  0  0  0  0  0  0  0  0
  -91.6261   28.4244   -0.8732 O   0  0  0  0  0  0  0  0  0  0  0  0
  -92.0346   28.6600   -2.1085 C   0  0  0  0  0  0  0  0  0  0  0  0
  -93.3234   28.2752   -2.4649 C   0  0  0  0  0  0  0  0  0  0  0  0
  -88.2809   29.7459   -0.9116 C   0  0  0  0  0  0  0  0  0  0  0  0
  -88.0890   30.9961   -0.4029 C   0  0  0  0  0  0  0  0  0  0  0  0
  -86.8613   31.3804    0.0735 C   0  0  0  0  0  0  0  0  0  0  0  0
  -85.8168   30.4892    0.0342 C   0  0  0  0  0  0  0  0  0  0  0  0
  -86.0100   29.2203   -0.4817 C   0  0  0  0  0  0  0  0  0  0  0  0
  -87.2430   28.8542   -0.9530 C   0  0  0  0  0  0  0  0  0  0  0  0
  -87.3724   27.4768   -1.4949 C   0  0  0  0  0  0  0  0  0  0  0  0
  -84.5641   30.8814    0.5205 O   0  0  0  0  0  0  0  0  0  0  0  0
  -84.2174   30.6869    1.8871 C   0  0  0  0  0  0  0  0  0  0  0  0
  -84.1192   31.9195    2.4836 F   0  0  0  0  0  0  0  0  0  0  0  0
  -85.1980   29.9348    2.5071 F   0  0  0  0  0  0  0  0  0  0  0  0
  -83.0243   29.9915    2.0156 F   0  0  0  0  0  0  0  0  0  0  0  0
  -95.1074   28.0887   -4.0574 O   0  0  0  0  0  0  0  0  0  0  0  0
  -94.8650   25.8863   -4.9623 C   0  0  0  0  0  0  0  0  0  0  0  0
  -95.4082   27.2803   -5.1785 C   0  0  0  0  0  0  0  0  0  0  0  0
  -89.1921   30.2383   -3.6423 O   0  0  0  0  0  0  0  0  0  0  0  0
  -88.9096   31.5026   -4.0081 C   0  0  0  0  0  0  0  0  0  0  0  0
  -89.7456   32.3675   -4.6635 C   0  0  0  0  0  0  0  0  0  0  0  0
  -89.3906   33.6682   -5.0195 C   0  0  0  0  0  0  0  0  0  0  0  0
  -88.1247   34.1564   -4.7106 C   0  0  0  0  0  0  0  0  0  0  0  0
  -87.2659   33.3080   -4.0522 C   0  0  0  0  0  0  0  0  0  0  0  0
  -87.6388   32.0292   -3.7117 C   0  0  0  0  0  0  0  0  0  0  0  0
  -87.7766   35.5142   -5.0913 C   0  0  0  0  0  0  0  0  0  0  0  0
  -87.7204   35.9452   -6.3350 C   0  0  0  0  0  0  0  0  0  0  0  0
  -87.3531   37.3518   -6.5896 C   0  0  0  0  0  0  0  0  0  0  0  0
  -87.9426   38.2978   -6.0234 O   0  0  0  0  0  0  0  0  0  0  0  0
  -86.3362   37.6578   -7.4710 O   0  0  0  0  0  0  0  0  0  0  0  0
  -85.4425   38.0654   -7.1726 H   0  0  0  0  0  0  0  0  0  0  0  0
 25 26  1  0  0  0
 26 24  1  0  0  0
 24  1  1  0  0  0
  1  2  2  0  0  0
  2  3  1  0  0  0
  3  4  2  0  0  0
  4  5  1  0  0  0
  5 27  1  0  0  0
 27 28  1  0  0  0
 28 29  2  0  0  0
 29 30  1  0  0  0
 30 31  2  0  0  0
 31 34  1  0  0  0
 34 35  2  0  0  0
 35 36  1  0  0  0
 36 37  2  0  0  0
 36 38  1  0  0  0
 31 32  1  0  0  0
 32 33  2  0  0  0
  5  6  2  0  0  0
  6 12  1  0  0  0
 12 13  2  0  0  0
 13 14  1  0  0  0
 14 15  2  0  0  0
 15 19  1  0  0  0
 19 20  1  0  0  0
 20 21  1  0  0  0
 20 22  1  0  0  0
 20 23  1  0  0  0
 15 16  1  0  0  0
 16 17  2  0  0  0
 17 18  1  0  0  0
  6  7  1  0  0  0
  7  8  2  0  0  0
  7  9  1  0  0  0
  9 10  1  0  0  0
 10 11  2  0  0  0
 11  1  1  0  0  0
 10  4  1  0  0  0
 33 28  1  0  0  0
 17 12  1  0  0  0
 38 39  1  0  0  0
M  END
> <minimizedAffinity>
-8.28886

> <CNNscore>
0.0369265713

> <CNNaffinity>
6.0978002548

> <CNN_VS>
0.2251708508

> <CNNaffinity_variance>
0.3376079500

$$$$
[H]OC(=O)/C([H])=C(\[H])c1c([H])c([H])c(Oc2c(-c3c([H])c([H])c(OC(F)(F)F)c([H])c3C([H])([H])[H])c(=O)oc3c([H])c(OC([H])([H])C([H])([H])[H])c([H])c([H])c23)c([H])c1[H]


 39 42  0  0  0  0  0  0  0  0999 V2000
  -84.7520   30.9459    1.1361 C   0  0  0  0  0  0  0  0  0  0  0  0
  -85.8621   30.1378    1.1624 C   0  0  0  0  0  0  0  0  0  0  0  0
  -86.8833   30.3927    0.2735 C   0  0  0  0  0  0  0  0  0  0  0  0
  -86.8246   31.4295   -0.6365 C   0  0  0  0  0  0  0  0  0  0  0  0
  -87.8602   31.6944   -1.5490 C   0  0  0  0  0  0  0  0  0  0  0  0
  -87.6473   32.7625   -2.3961 C   0  0  0  0  0  0  0  0  0  0  0  0
  -86.4959   33.5472   -2.3760 C   0  0  0  0  0  0  0  0  0  0  0  0
  -86.3496   34.5198   -3.1784 O   0  0  0  0  0  0  0  0  0  0  0  0
  -85.5749   33.2523   -1.5091 O   0  0  0  0  0  0  0  0  0  0  0  0
  -85.7177   32.2408   -0.6694 C   0  0  0  0  0  0  0  0  0  0  0  0
  -84.6904   31.9776    0.2315 C   0  0  0  0  0  0  0  0  0  0  0  0
  -88.6555   33.1444   -3.3629 C   0  0  0  0  0  0  0  0  0  0  0  0
  -89.4580   34.2156   -3.1040 C   0  0  0  0  0  0  0  0  0  0  0  0
  -90.4207   34.6056   -4.0001 C   0  0  0  0  0  0  0  0  0  0  0  0
  -90.5723   33.9034   -5.1708 C   0  0  0  0  0  0  0  0  0  0  0  0
  -89.7588   32.8163   -5.4349 C   0  0  0  0  0  0  0  0  0  0  0  0
  -88.8028   32.4413   -4.5283 C   0  0  0  0  0  0  0  0  0  0  0  0
  -87.9700   31.2622   -4.8802 C   0  0  0  0  0  0  0  0  0  0  0  0
  -91.5546   34.3016   -6.0852 O   0  0  0  0  0  0  0  0  0  0  0  0
  -91.1973   34.8191   -7.3620 C   0  0  0  0  0  0  0  0  0  0  0  0
  -92.1753   35.6981   -7.7568 F   0  0  0  0  0  0  0  0  0  0  0  0
  -89.9812   35.4703   -7.2696 F   0  0  0  0  0  0  0  0  0  0  0  0
  -91.0507   33.8069   -8.2986 F   0  0  0  0  0  0  0  0  0  0  0  0
  -83.7241   30.7029    2.0190 O   0  0  0  0  0  0  0  0  0  0  0  0
  -82.9592   28.4610    2.3611 C   0  0  0  0  0  0  0  0  0  0  0  0
  -82.6610   29.8101    1.7478 C   0  0  0  0  0  0  0  0  0  0  0  0
  -88.9441   30.9005   -1.5160 O   0  0  0  0  0  0  0  0  0  0  0  0
  -89.1761   29.5745   -1.5048 C   0  0  0  0  0  0  0  0  0  0  0  0
  -90.0134   28.9008   -0.6554 C   0  0  0  0  0  0  0  0  0  0  0  0
  -90.2079   27.5204   -0.6923 C   0  0  0  0  0  0  0  0  0  0  0  0
  -89.5329   26.7444   -1.6296 C   0  0  0  0  0  0  0  0  0  0  0  0
  -88.6862   27.3967   -2.4946 C   0  0  0  0  0  0  0  0  0  0  0  0
  -88.5108   28.7591   -2.4389 C   0  0  0  0  0  0  0  0  0  0  0  0
  -89.7507   25.3085   -1.6494 C   0  0  0  0  0  0  0  0  0  0  0  0
  -89.6026   24.5207   -0.6039 C   0  0  0  0  0  0  0  0  0  0  0  0
  -89.8552   23.0745   -0.7554 C   0  0  0  0  0  0  0  0  0  0  0  0
  -90.9056   22.6420   -1.2777 O   0  0  0  0  0  0  0  0  0  0  0  0
  -88.9240   22.1549   -0.3175 O   0  0  0  0  0  0  0  0  0  0  0  0
  -88.3867   21.5571   -0.9560 H   0  0  0  0  0  0  0  0  0  0  0  0
 25 26  1  0  0  0
 26 24  1  0  0  0
 24  1  1  0  0  0
  1  2  2  0  0  0
  2  3  1  0  0  0
  3  4  2  0  0  0
  4  5  1  0  0  0
  5 27  1  0  0  0
 27 28  1  0  0  0
 28 29  2  0  0  0
 29 30  1  0  0  0
 30 31  2  0  0  0
 31 34  1  0  0  0
 34 35  2  0  0  0
 35 36  1  0  0  0
 36 37  2  0  0  0
 36 38  1  0  0  0
 31 32  1  0  0  0
 32 33  2  0  0  0
  5  6  2  0  0  0
  6 12  1  0  0  0
 12 13  2  0  0  0
 13 14  1  0  0  0
 14 15  2  0  0  0
 15 19  1  0  0  0
 19 20  1  0  0  0
 20 21  1  0  0  0
 20 22  1  0  0  0
 20 23  1  0  0  0
 15 16  1  0  0  0
 16 17  2  0  0  0
 17 18  1  0  0  0
  6  7  1  0  0  0
  7  8  2  0  0  0
  7  9  1  0  0  0
  9 10  1  0  0  0
 10 11  2  0  0  0
 11  1  1  0  0  0
 10  4  1  0  0  0
 33 28  1  0  0  0
 17 12  1  0  0  0
 38 39  1  0  0  0
M  END
> <minimizedAffinity>
-8.97674

> <CNNscore>
0.0341759697

> <CNNaffinity>
6.4197082520

> <CNN_VS>
0.2193997502

> <CNNaffinity_variance>
0.2081716359

$$$$
[H]OC(=O)/C([H])=C(\[H])c1c([H])c([H])c(Oc2c(-c3c([H])c([H])c(OC(F)(F)F)c([H])c3C([H])([H])[H])c(=O)oc3c([H])c(OC([H])([H])C([H])([H])[H])c([H])c([H])c23)c([H])c1[H]


 39 42  0  0  0  0  0  0  0  0999 V2000
  -93.5815   26.1602   -2.7309 C   0  0  0  0  0  0  0  0  0  0  0  0
  -93.0784   26.7672   -3.8555 C   0  0  0  0  0  0  0  0  0  0  0  0
  -91.9801   27.5886   -3.7250 C   0  0  0  0  0  0  0  0  0  0  0  0
  -91.3745   27.8185   -2.5058 C   0  0  0  0  0  0  0  0  0  0  0  0
  -90.2518   28.6521   -2.3643 C   0  0  0  0  0  0  0  0  0  0  0  0
  -89.7606   28.7748   -1.0807 C   0  0  0  0  0  0  0  0  0  0  0  0
  -90.3148   28.1308    0.0238 C   0  0  0  0  0  0  0  0  0  0  0  0
  -89.8234   28.2776    1.1849 O   0  0  0  0  0  0  0  0  0  0  0  0
  -91.3521   27.3741   -0.1717 O   0  0  0  0  0  0  0  0  0  0  0  0
  -91.8710   27.2143   -1.3774 C   0  0  0  0  0  0  0  0  0  0  0  0
  -92.9806   26.3864   -1.5168 C   0  0  0  0  0  0  0  0  0  0  0  0
  -88.6208   29.6261   -0.8096 C   0  0  0  0  0  0  0  0  0  0  0  0
  -88.8255   30.9365   -0.4940 C   0  0  0  0  0  0  0  0  0  0  0  0
  -87.7681   31.7691   -0.2287 C   0  0  0  0  0  0  0  0  0  0  0  0
  -86.4898   31.2695   -0.2835 C   0  0  0  0  0  0  0  0  0  0  0  0
  -86.2805   29.9401   -0.6037 C   0  0  0  0  0  0  0  0  0  0  0  0
  -87.3487   29.1235   -0.8657 C   0  0  0  0  0  0  0  0  0  0  0  0
  -87.0448   27.7093   -1.2055 C   0  0  0  0  0  0  0  0  0  0  0  0
  -85.4108   32.1192   -0.0127 O   0  0  0  0  0  0  0  0  0  0  0  0
  -85.2337   33.3296   -0.7402 C   0  0  0  0  0  0  0  0  0  0  0  0
  -85.9767   34.3091   -0.1291 F   0  0  0  0  0  0  0  0  0  0  0  0
  -83.8951   33.6756   -0.7369 F   0  0  0  0  0  0  0  0  0  0  0  0
  -85.6176   33.1879   -2.0653 F   0  0  0  0  0  0  0  0  0  0  0  0
  -94.6789   25.3371   -2.8467 O   0  0  0  0  0  0  0  0  0  0  0  0
  -94.2061   23.2505   -3.9195 C   0  0  0  0  0  0  0  0  0  0  0  0
  -94.6270   23.9387   -2.6410 C   0  0  0  0  0  0  0  0  0  0  0  0
  -89.7664   29.2441   -3.4689 O   0  0  0  0  0  0  0  0  0  0  0  0
  -89.3799   30.4865   -3.8141 C   0  0  0  0  0  0  0  0  0  0  0  0
  -90.1778   31.5977   -3.8859 C   0  0  0  0  0  0  0  0  0  0  0  0
  -89.7161   32.8605   -4.2557 C   0  0  0  0  0  0  0  0  0  0  0  0
  -88.3755   33.0477   -4.5781 C   0  0  0  0  0  0  0  0  0  0  0  0
  -87.5528   31.9477   -4.5137 C   0  0  0  0  0  0  0  0  0  0  0  0
  -88.0313   30.7123   -4.1463 C   0  0  0  0  0  0  0  0  0  0  0  0
  -87.9169   34.3717   -4.9607 C   0  0  0  0  0  0  0  0  0  0  0  0
  -88.5197   35.1390   -5.8459 C   0  0  0  0  0  0  0  0  0  0  0  0
  -87.9515   36.4675   -6.1471 C   0  0  0  0  0  0  0  0  0  0  0  0
  -88.4666   37.5179   -5.7063 O   0  0  0  0  0  0  0  0  0  0  0  0
  -86.8229   36.5807   -6.9333 O   0  0  0  0  0  0  0  0  0  0  0  0
  -85.9174   36.8976   -6.5680 H   0  0  0  0  0  0  0  0  0  0  0  0
 25 26  1  0  0  0
 26 24  1  0  0  0
 24  1  1  0  0  0
  1  2  2  0  0  0
  2  3  1  0  0  0
  3  4  2  0  0  0
  4  5  1  0  0  0
  5 27  1  0  0  0
 27 28  1  0  0  0
 28 29  2  0  0  0
 29 30  1  0  0  0
 30 31  2  0  0  0
 31 34  1  0  0  0
 34 35  2  0  0  0
 35 36  1  0  0  0
 36 37  2  0  0  0
 36 38  1  0  0  0
 31 32  1  0  0  0
 32 33  2  0  0  0
  5  6  2  0  0  0
  6 12  1  0  0  0
 12 13  2  0  0  0
 13 14  1  0  0  0
 14 15  2  0  0  0
 15 19  1  0  0  0
 19 20  1  0  0  0
 20 21  1  0  0  0
 20 22  1  0  0  0
 20 23  1  0  0  0
 15 16  1  0  0  0
 16 17  2  0  0  0
 17 18  1  0  0  0
  6  7  1  0  0  0
  7  8  2  0  0  0
  7  9  1  0  0  0
  9 10  1  0  0  0
 10 11  2  0  0  0
 11  1  1  0  0  0
 10  4  1  0  0  0
 33 28  1  0  0  0
 17 12  1  0  0  0
 38 39  1  0  0  0
M  END
> <minimizedAffinity>
-8.03584

> <CNNscore>
0.0340367928

> <CNNaffinity>
5.9029188156

> <CNN_VS>
0.2009164244

> <CNNaffinity_variance>
0.5069279075

$$$$
[H]N=C(c1c([H])c([H])c([H])c(Oc2c([H])c([H])c(N([H])[H])c([H])c2C(=O)N([H])c2c([H])c([H])c(-c3c([H])c([H])c([H])c([H])c3S(=O)(=O)N([H])[H])c([H])c2[H])c1[H])N([H])[H]


 44 47  0  0  0  0  0  0  0  0999 V2000
  -85.8259   31.2403    0.3809 C   0  0  0  0  0  0  0  0  0  0  0  0
  -84.9987   30.3384    1.0973 C   0  0  0  0  0  0  0  0  0  0  0  0
  -83.6424   30.5219    1.1278 C   0  0  0  0  0  0  0  0  0  0  0  0
  -83.1180   31.5934    0.4493 C   0  0  0  0  0  0  0  0  0  0  0  0
  -81.7112   31.7548    0.4840 N   0  0  0  0  0  0  0  0  0  0  0  0
  -83.9201   32.4686   -0.2381 C   0  0  0  0  0  0  0  0  0  0  0  0
  -85.3447   32.3019   -0.2790 C   0  0  0  0  0  0  0  0  0  0  0  0
  -81.2791   32.6637    0.6756 H   0  0  0  0  0  0  0  0  0  0  0  0
  -81.1432   30.9126    0.2984 H   0  0  0  0  0  0  0  0  0  0  0  0
  -86.0875   33.5161   -0.7136 C   0  0  0  0  0  0  0  0  0  0  0  0
  -85.9435   34.4591    0.1718 O   0  0  0  0  0  0  0  0  0  0  0  0
  -86.8066   33.7330   -1.7953 N   0  0  0  0  0  0  0  0  0  0  0  0
  -86.7101   35.0993   -1.5502 H   0  0  0  0  0  0  0  0  0  0  0  0
  -87.5598   33.9602   -2.9284 C   0  0  0  0  0  0  0  0  0  0  0  0
  -88.4946   35.0218   -2.9399 C   0  0  0  0  0  0  0  0  0  0  0  0
  -89.3311   35.2421   -4.0104 C   0  0  0  0  0  0  0  0  0  0  0  0
  -89.2938   34.4365   -5.1199 C   0  0  0  0  0  0  0  0  0  0  0  0
  -88.3941   33.4025   -5.1384 C   0  0  0  0  0  0  0  0  0  0  0  0
  -87.5480   33.1712   -4.0673 C   0  0  0  0  0  0  0  0  0  0  0  0
  -90.1912   34.6060   -6.2400 C   0  0  0  0  0  0  0  0  0  0  0  0
  -91.2377   33.7316   -6.4649 C   0  0  0  0  0  0  0  0  0  0  0  0
  -92.0730   33.8619   -7.5450 C   0  0  0  0  0  0  0  0  0  0  0  0
  -91.8637   34.8943   -8.4331 C   0  0  0  0  0  0  0  0  0  0  0  0
  -90.8336   35.7707   -8.2268 C   0  0  0  0  0  0  0  0  0  0  0  0
  -89.9910   35.6337   -7.1287 C   0  0  0  0  0  0  0  0  0  0  0  0
  -88.7420   36.7911   -6.9234 S   0  0  0  0  0  0  0  0  0  0  0  0
  -88.6575   37.7853   -8.3654 N   0  0  0  0  0  0  0  0  0  0  0  0
  -87.3924   36.0931   -6.9004 O   0  0  0  0  0  0  0  0  0  0  0  0
  -88.9138   37.6963   -5.7380 O   0  0  0  0  0  0  0  0  0  0  0  0
  -88.2609   37.2486   -9.1653 H   0  0  0  0  0  0  0  0  0  0  0  0
  -89.6094   38.0977   -8.6187 H   0  0  0  0  0  0  0  0  0  0  0  0
  -87.2067   30.9311    0.3954 O   0  0  0  0  0  0  0  0  0  0  0  0
  -88.2464   27.5938   -0.6911 C   0  0  0  0  0  0  0  0  0  0  0  0
  -88.1962   27.6984   -2.0656 C   0  0  0  0  0  0  0  0  0  0  0  0
  -87.8245   28.8603   -2.6941 C   0  0  0  0  0  0  0  0  0  0  0  0
  -87.4941   29.9490   -1.8696 C   0  0  0  0  0  0  0  0  0  0  0  0
  -87.5226   29.9063   -0.5287 C   0  0  0  0  0  0  0  0  0  0  0  0
  -87.9157   28.6797    0.0773 C   0  0  0  0  0  0  0  0  0  0  0  0
  -89.7884   26.0972    0.4255 N   0  0  0  0  0  0  0  0  0  0  0  0
  -88.6344   26.3373   -0.0381 C   0  0  0  0  0  0  0  0  0  0  0  0
  -87.6461   25.3270    0.0988 N   0  0  0  0  0  0  0  0  0  0  0  0
  -90.6275   26.6741    0.4329 H   0  0  0  0  0  0  0  0  0  0  0  0
  -87.3618   25.1033    1.0873 H   0  0  0  0  0  0  0  0  0  0  0  0
  -87.1896   24.8039   -0.6537 H   0  0  0  0  0  0  0  0  0  0  0  0
 39 40  2  0  0  0
 40 41  1  0  0  0
 40 33  1  0  0  0
 33 34  2  0  0  0
 34 35  1  0  0  0
 35 36  2  0  0  0
 36 37  1  0  0  0
 37 32  1  0  0  0
 32  1  1  0  0  0
  1  2  2  0  0  0
  2  3  1  0  0  0
  3  4  2  0  0  0
  4  5  1  0  0  0
  4  6  1  0  0  0
  6  7  2  0  0  0
  7 10  1  0  0  0
 10 11  2  0  0  0
 10 12  1  0  0  0
 12 14  1  0  0  0
 14 15  2  0  0  0
 15 16  1  0  0  0
 16 17  2  0  0  0
 17 20  1  0  0  0
 20 21  2  0  0  0
 21 22  1  0  0  0
 22 23  2  0  0  0
 23 24  1  0  0  0
 24 25  2  0  0  0
 25 26  1  0  0  0
 26 27  1  0  0  0
 26 28  2  0  0  0
 26 29  2  0  0  0
 17 18  1  0  0  0
 18 19  2  0  0  0
 37 38  2  0  0  0
 38 33  1  0  0  0
  7  1  1  0  0  0
 19 14  1  0  0  0
 25 20  1  0  0  0
 39 42  1  0  0  0
 41 43  1  0  0  0
 41 44  1  0  0  0
  5  8  1  0  0  0
  5  9  1  0  0  0
 12 13  1  0  0  0
 27 30  1  0  0  0
 27 31  1  0  0  0
M  END
> <minimizedAffinity>
-8.85770

> <CNNscore>
0.2144418508

> <CNNaffinity>
6.3742561340

> <CNN_VS>
1.3669072390

> <CNNaffinity_variance>
0.2884770334

$$$$
[H]N=C(c1c([H])c([H])c([H])c(Oc2c([H])c([H])c(N([H])[H])c([H])c2C(=O)N([H])c2c([H])c([H])c(-c3c([H])c([H])c([H])c([H])c3S(=O)(=O)N([H])[H])c([H])c2[H])c1[H])N([H])[H]


 44 47  0  0  0  0  0  0  0  0999 V2000
  -85.7377   31.1554    0.4826 C   0  0  0  0  0  0  0  0  0  0  0  0
  -85.1614   32.2114   -0.2683 C   0  0  0  0  0  0  0  0  0  0  0  0
  -83.8188   32.4651   -0.1838 C   0  0  0  0  0  0  0  0  0  0  0  0
  -83.0605   31.6740    0.6424 C   0  0  0  0  0  0  0  0  0  0  0  0
  -81.6764   31.9643    0.7238 N   0  0  0  0  0  0  0  0  0  0  0  0
  -83.6183   30.6489    1.3633 C   0  0  0  0  0  0  0  0  0  0  0  0
  -85.0215   30.3584    1.2862 C   0  0  0  0  0  0  0  0  0  0  0  0
  -80.9681   31.2266    0.6631 H   0  0  0  0  0  0  0  0  0  0  0  0
  -81.4175   32.9552    0.8558 H   0  0  0  0  0  0  0  0  0  0  0  0
  -85.3933   29.0112    1.7975 C   0  0  0  0  0  0  0  0  0  0  0  0
  -84.4477   28.5579    2.5684 O   0  0  0  0  0  0  0  0  0  0  0  0
  -86.4732   28.2879    1.5854 N   0  0  0  0  0  0  0  0  0  0  0  0
  -86.1408   27.5186    2.6962 H   0  0  0  0  0  0  0  0  0  0  0  0
  -87.6043   27.5303    1.3632 C   0  0  0  0  0  0  0  0  0  0  0  0
  -87.4929   26.3021    0.6703 C   0  0  0  0  0  0  0  0  0  0  0  0
  -88.5973   25.5471    0.3472 C   0  0  0  0  0  0  0  0  0  0  0  0
  -89.8621   25.9556    0.6858 C   0  0  0  0  0  0  0  0  0  0  0  0
  -89.9999   27.1398    1.3622 C   0  0  0  0  0  0  0  0  0  0  0  0
  -88.8962   27.9077    1.6922 C   0  0  0  0  0  0  0  0  0  0  0  0
  -91.0477   25.2151    0.3186 C   0  0  0  0  0  0  0  0  0  0  0  0
  -91.7294   25.4798   -0.8543 C   0  0  0  0  0  0  0  0  0  0  0  0
  -92.8758   24.8083   -1.1948 C   0  0  0  0  0  0  0  0  0  0  0  0
  -93.3638   23.8412   -0.3433 C   0  0  0  0  0  0  0  0  0  0  0  0
  -92.7023   23.5641    0.8217 C   0  0  0  0  0  0  0  0  0  0  0  0
  -91.5394   24.2478    1.1605 C   0  0  0  0  0  0  0  0  0  0  0  0
  -90.7519   23.8210    2.6231 S   0  0  0  0  0  0  0  0  0  0  0  0
  -89.8922   22.3126    2.3765 N   0  0  0  0  0  0  0  0  0  0  0  0
  -91.7852   23.4657    3.6792 O   0  0  0  0  0  0  0  0  0  0  0  0
  -89.7745   24.8413    3.1306 O   0  0  0  0  0  0  0  0  0  0  0  0
  -90.5560   21.5132    2.3022 H   0  0  0  0  0  0  0  0  0  0  0  0
  -89.3485   22.3711    1.4996 H   0  0  0  0  0  0  0  0  0  0  0  0
  -87.1377   31.0090    0.3380 O   0  0  0  0  0  0  0  0  0  0  0  0
  -88.4214   31.5664   -3.0444 C   0  0  0  0  0  0  0  0  0  0  0  0
  -88.2962   30.3193   -3.6203 C   0  0  0  0  0  0  0  0  0  0  0  0
  -87.7864   29.2473   -2.9316 C   0  0  0  0  0  0  0  0  0  0  0  0
  -87.3938   29.4769   -1.6023 C   0  0  0  0  0  0  0  0  0  0  0  0
  -87.4932   30.6661   -0.9887 C   0  0  0  0  0  0  0  0  0  0  0  0
  -88.0269   31.7480   -1.7442 C   0  0  0  0  0  0  0  0  0  0  0  0
  -88.3577   33.3445   -4.6871 N   0  0  0  0  0  0  0  0  0  0  0  0
  -88.9814   32.6974   -3.7947 C   0  0  0  0  0  0  0  0  0  0  0  0
  -90.3067   33.1059   -3.4897 N   0  0  0  0  0  0  0  0  0  0  0  0
  -87.4152   33.2204   -5.0521 H   0  0  0  0  0  0  0  0  0  0  0  0
  -90.3981   34.0644   -3.0645 H   0  0  0  0  0  0  0  0  0  0  0  0
  -91.1672   32.5712   -3.6383 H   0  0  0  0  0  0  0  0  0  0  0  0
 39 40  2  0  0  0
 40 41  1  0  0  0
 40 33  1  0  0  0
 33 34  2  0  0  0
 34 35  1  0  0  0
 35 36  2  0  0  0
 36 37  1  0  0  0
 37 32  1  0  0  0
 32  1  1  0  0  0
  1  2  2  0  0  0
  2  3  1  0  0  0
  3  4  2  0  0  0
  4  5  1  0  0  0
  4  6  1  0  0  0
  6  7  2  0  0  0
  7 10  1  0  0  0
 10 11  2  0  0  0
 10 12  1  0  0  0
 12 14  1  0  0  0
 14 15  2  0  0  0
 15 16  1  0  0  0
 16 17  2  0  0  0
 17 20  1  0  0  0
 20 21  2  0  0  0
 21 22  1  0  0  0
 22 23  2  0  0  0
 23 24  1  0  0  0
 24 25  2  0  0  0
 25 26  1  0  0  0
 26 27  1  0  0  0
 26 28  2  0  0  0
 26 29  2  0  0  0
 17 18  1  0  0  0
 18 19  2  0  0  0
 37 38  2  0  0  0
 38 33  1  0  0  0
  7  1  1  0  0  0
 19 14  1  0  0  0
 25 20  1  0  0  0
 39 42  1  0  0  0
 41 43  1  0  0  0
 41 44  1  0  0  0
  5  8  1  0  0  0
  5  9  1  0  0  0
 12 13  1  0  0  0
 27 30  1  0  0  0
 27 31  1  0  0  0
M  END
> <minimizedAffinity>
-9.82612

> <CNNscore>
0.1671196967

> <CNNaffinity>
6.6936864853

> <CNN_VS>
1.1186468601

> <CNNaffinity_variance>
0.2037033737

$$$$
[H]N=C(c1c([H])c([H])c([H])c(Oc2c([H])c([H])c(N([H])[H])c([H])c2C(=O)N([H])c2c([H])c([H])c(-c3c([H])c([H])c([H])c([H])c3S(=O)(=O)N([H])[H])c([H])c2[H])c1[H])N([H])[H]


 44 47  0  0  0  0  0  0  0  0999 V2000
  -85.5947   31.2264    0.4569 C   0  0  0  0  0  0  0  0  0  0  0  0
  -84.7874   30.4683    1.3426 C   0  0  0  0  0  0  0  0  0  0  0  0
  -83.4366   30.6833    1.4000 C   0  0  0  0  0  0  0  0  0  0  0  0
  -82.8980   31.6437    0.5809 C   0  0  0  0  0  0  0  0  0  0  0  0
  -81.4966   31.8387    0.6481 N   0  0  0  0  0  0  0  0  0  0  0  0
  -83.6810   32.3806   -0.2709 C   0  0  0  0  0  0  0  0  0  0  0  0
  -85.0999   32.1791   -0.3441 C   0  0  0  0  0  0  0  0  0  0  0  0
  -81.0866   32.7756    0.7093 H   0  0  0  0  0  0  0  0  0  0  0  0
  -80.9087   30.9900    0.6239 H   0  0  0  0  0  0  0  0  0  0  0  0
  -85.8400   33.2921   -0.9984 C   0  0  0  0  0  0  0  0  0  0  0  0
  -85.3976   34.4333   -0.5558 O   0  0  0  0  0  0  0  0  0  0  0  0
  -86.8020   33.2629   -1.8972 N   0  0  0  0  0  0  0  0  0  0  0  0
  -86.5439   34.6017   -2.1746 H   0  0  0  0  0  0  0  0  0  0  0  0
  -87.8097   33.2322   -2.8387 C   0  0  0  0  0  0  0  0  0  0  0  0
  -89.0468   33.8557   -2.5528 C   0  0  0  0  0  0  0  0  0  0  0  0
  -90.1141   33.7841   -3.4189 C   0  0  0  0  0  0  0  0  0  0  0  0
  -90.0233   33.1009   -4.6047 C   0  0  0  0  0  0  0  0  0  0  0  0
  -88.8345   32.4908   -4.9103 C   0  0  0  0  0  0  0  0  0  0  0  0
  -87.7543   32.5559   -4.0467 C   0  0  0  0  0  0  0  0  0  0  0  0
  -91.1378   32.9614   -5.5143 C   0  0  0  0  0  0  0  0  0  0  0  0
  -91.3483   33.8623   -6.5411 C   0  0  0  0  0  0  0  0  0  0  0  0
  -92.4228   33.7602   -7.3874 C   0  0  0  0  0  0  0  0  0  0  0  0
  -93.3201   32.7297   -7.2096 C   0  0  0  0  0  0  0  0  0  0  0  0
  -93.1280   31.8273   -6.1994 C   0  0  0  0  0  0  0  0  0  0  0  0
  -92.0354   31.9358   -5.3456 C   0  0  0  0  0  0  0  0  0  0  0  0
  -91.8481   30.7472   -4.1233 S   0  0  0  0  0  0  0  0  0  0  0  0
  -93.1367   29.5692   -4.2858 N   0  0  0  0  0  0  0  0  0  0  0  0
  -92.1095   31.3655   -2.7600 O   0  0  0  0  0  0  0  0  0  0  0  0
  -90.5369   30.0166   -4.1541 O   0  0  0  0  0  0  0  0  0  0  0  0
  -94.0504   29.9732   -3.9903 H   0  0  0  0  0  0  0  0  0  0  0  0
  -93.2097   29.2800   -5.2752 H   0  0  0  0  0  0  0  0  0  0  0  0
  -86.9701   30.8939    0.4631 O   0  0  0  0  0  0  0  0  0  0  0  0
  -87.6013   27.3533   -0.2188 C   0  0  0  0  0  0  0  0  0  0  0  0
  -87.7424   27.3342   -1.5907 C   0  0  0  0  0  0  0  0  0  0  0  0
  -87.6405   28.4736   -2.3489 C   0  0  0  0  0  0  0  0  0  0  0  0
  -87.3837   29.6715   -1.6611 C   0  0  0  0  0  0  0  0  0  0  0  0
  -87.2354   29.7516   -0.3299 C   0  0  0  0  0  0  0  0  0  0  0  0
  -87.3509   28.5434    0.4138 C   0  0  0  0  0  0  0  0  0  0  0  0
  -88.0695   25.0004    0.1111 N   0  0  0  0  0  0  0  0  0  0  0  0
  -87.7014   26.1208    0.5729 C   0  0  0  0  0  0  0  0  0  0  0  0
  -87.3796   26.1906    1.9542 N   0  0  0  0  0  0  0  0  0  0  0  0
  -88.3414   24.7355   -0.8338 H   0  0  0  0  0  0  0  0  0  0  0  0
  -88.1808   26.0175    2.6145 H   0  0  0  0  0  0  0  0  0  0  0  0
  -86.4633   26.3896    2.3654 H   0  0  0  0  0  0  0  0  0  0  0  0
 39 40  2  0  0  0
 40 41  1  0  0  0
 40 33  1  0  0  0
 33 34  2  0  0  0
 34 35  1  0  0  0
 35 36  2  0  0  0
 36 37  1  0  0  0
 37 32  1  0  0  0
 32  1  1  0  0  0
  1  2  2  0  0  0
  2  3  1  0  0  0
  3  4  2  0  0  0
  4  5  1  0  0  0
  4  6  1  0  0  0
  6  7  2  0  0  0
  7 10  1  0  0  0
 10 11  2  0  0  0
 10 12  1  0  0  0
 12 14  1  0  0  0
 14 15  2  0  0  0
 15 16  1  0  0  0
 16 17  2  0  0  0
 17 20  1  0  0  0
 20 21  2  0  0  0
 21 22  1  0  0  0
 22 23  2  0  0  0
 23 24  1  0  0  0
 24 25  2  0  0  0
 25 26  1  0  0  0
 26 27  1  0  0  0
 26 28  2  0  0  0
 26 29  2  0  0  0
 17 18  1  0  0  0
 18 19  2  0  0  0
 37 38  2  0  0  0
 38 33  1  0  0  0
  7  1  1  0  0  0
 19 14  1  0  0  0
 25 20  1  0  0  0
 39 42  1  0  0  0
 41 43  1  0  0  0
 41 44  1  0  0  0
  5  8  1  0  0  0
  5  9  1  0  0  0
 12 13  1  0  0  0
 27 30  1  0  0  0
 27 31  1  0  0  0
M  END
> <minimizedAffinity>
-9.04732

> <CNNscore>
0.1378627419

> <CNNaffinity>
6.7236428261

> <CNN_VS>
0.9269398451

> <CNNaffinity_variance>
0.1229177564

$$$$
[H]N=C(c1c([H])c([H])c([H])c(Oc2c([H])c([H])c(N([H])[H])c([H])c2C(=O)N([H])c2c([H])c([H])c(-c3c([H])c([H])c([H])c([H])c3S(=O)(=O)N([H])[H])c([H])c2[H])c1[H])N([H])[H]


 44 47  0  0  0  0  0  0  0  0999 V2000
  -86.1544   32.3437   -0.3906 C   0  0  0  0  0  0  0  0  0  0  0  0
  -85.2521   33.3316   -0.8607 C   0  0  0  0  0  0  0  0  0  0  0  0
  -83.9165   33.2376   -0.5755 C   0  0  0  0  0  0  0  0  0  0  0  0
  -83.4870   32.1698    0.1719 C   0  0  0  0  0  0  0  0  0  0  0  0
  -82.1030   32.1012    0.4657 N   0  0  0  0  0  0  0  0  0  0  0  0
  -84.3601   31.2116    0.6207 C   0  0  0  0  0  0  0  0  0  0  0  0
  -85.7632   31.2839    0.3289 C   0  0  0  0  0  0  0  0  0  0  0  0
  -81.5717   31.2327    0.3518 H   0  0  0  0  0  0  0  0  0  0  0  0
  -81.6583   32.9681    0.8082 H   0  0  0  0  0  0  0  0  0  0  0  0
  -86.4946   30.0043    0.5349 C   0  0  0  0  0  0  0  0  0  0  0  0
  -85.9596   29.3469    1.5226 O   0  0  0  0  0  0  0  0  0  0  0  0
  -87.5315   29.5035   -0.1042 N   0  0  0  0  0  0  0  0  0  0  0  0
  -87.7308   28.6318    0.9620 H   0  0  0  0  0  0  0  0  0  0  0  0
  -88.6176   28.9789   -0.7735 C   0  0  0  0  0  0  0  0  0  0  0  0
  -88.4051   28.1353   -1.8889 C   0  0  0  0  0  0  0  0  0  0  0  0
  -89.4493   27.6524   -2.6444 C   0  0  0  0  0  0  0  0  0  0  0  0
  -90.7497   27.9703   -2.3460 C   0  0  0  0  0  0  0  0  0  0  0  0
  -90.9858   28.7824   -1.2673 C   0  0  0  0  0  0  0  0  0  0  0  0
  -89.9434   29.2741   -0.5004 C   0  0  0  0  0  0  0  0  0  0  0  0
  -91.8673   27.5240   -3.1464 C   0  0  0  0  0  0  0  0  0  0  0  0
  -92.3581   26.2358   -3.0458 C   0  0  0  0  0  0  0  0  0  0  0  0
  -93.3944   25.7910   -3.8264 C   0  0  0  0  0  0  0  0  0  0  0  0
  -93.9638   26.6524   -4.7386 C   0  0  0  0  0  0  0  0  0  0  0  0
  -93.4925   27.9318   -4.8520 C   0  0  0  0  0  0  0  0  0  0  0  0
  -92.4422   28.3770   -4.0563 C   0  0  0  0  0  0  0  0  0  0  0  0
  -91.9293   30.0037   -4.2368 S   0  0  0  0  0  0  0  0  0  0  0  0
  -92.5356   30.6157   -5.7642 N   0  0  0  0  0  0  0  0  0  0  0  0
  -90.4210   30.0509   -4.4153 O   0  0  0  0  0  0  0  0  0  0  0  0
  -92.3837   30.9297   -3.1460 O   0  0  0  0  0  0  0  0  0  0  0  0
  -92.0261   30.1877   -6.5657 H   0  0  0  0  0  0  0  0  0  0  0  0
  -93.5386   30.3818   -5.8495 H   0  0  0  0  0  0  0  0  0  0  0  0
  -87.5127   32.5636   -0.7212 O   0  0  0  0  0  0  0  0  0  0  0  0
  -88.3586   34.1509   -3.9094 C   0  0  0  0  0  0  0  0  0  0  0  0
  -88.1757   33.1239   -4.8117 C   0  0  0  0  0  0  0  0  0  0  0  0
  -87.7671   31.8740   -4.4191 C   0  0  0  0  0  0  0  0  0  0  0  0
  -87.5409   31.6838   -3.0455 C   0  0  0  0  0  0  0  0  0  0  0  0
  -87.7035   32.6432   -2.1217 C   0  0  0  0  0  0  0  0  0  0  0  0
  -88.1274   33.9234   -2.5775 C   0  0  0  0  0  0  0  0  0  0  0  0
  -89.2425   36.3802   -3.5732 N   0  0  0  0  0  0  0  0  0  0  0  0
  -88.8087   35.4776   -4.3486 C   0  0  0  0  0  0  0  0  0  0  0  0
  -88.7712   35.7652   -5.7387 N   0  0  0  0  0  0  0  0  0  0  0  0
  -89.3519   36.3811   -2.5608 H   0  0  0  0  0  0  0  0  0  0  0  0
  -89.7080   35.9113   -6.1958 H   0  0  0  0  0  0  0  0  0  0  0  0
  -87.9396   35.8428   -6.3309 H   0  0  0  0  0  0  0  0  0  0  0  0
 39 40  2  0  0  0
 40 41  1  0  0  0
 40 33  1  0  0  0
 33 34  2  0  0  0
 34 35  1  0  0  0
 35 36  2  0  0  0
 36 37  1  0  0  0
 37 32  1  0  0  0
 32  1  1  0  0  0
  1  2  2  0  0  0
  2  3  1  0  0  0
  3  4  2  0  0  0
  4  5  1  0  0  0
  4  6  1  0  0  0
  6  7  2  0  0  0
  7 10  1  0  0  0
 10 11  2  0  0  0
 10 12  1  0  0  0
 12 14  1  0  0  0
 14 15  2  0  0  0
 15 16  1  0  0  0
 16 17  2  0  0  0
 17 20  1  0  0  0
 20 21  2  0  0  0
 21 22  1  0  0  0
 22 23  2  0  0  0
 23 24  1  0  0  0
 24 25  2  0  0  0
 25 26  1  0  0  0
 26 27  1  0  0  0
 26 28  2  0  0  0
 26 29  2  0  0  0
 17 18  1  0  0  0
 18 19  2  0  0  0
 37 38  2  0  0  0
 38 33  1  0  0  0
  7  1  1  0  0  0
 19 14  1  0  0  0
 25 20  1  0  0  0
 39 42  1  0  0  0
 41 43  1  0  0  0
 41 44  1  0  0  0
  5  8  1  0  0  0
  5  9  1  0  0  0
 12 13  1  0  0  0
 27 30  1  0  0  0
 27 31  1  0  0  0
M  END
> <minimizedAffinity>
-9.01168

> <CNNscore>
0.1366096735

> <CNNaffinity>
6.3591804504

> <CNN_VS>
0.8687255383

> <CNNaffinity_variance>
0.2832567096

$$$$
[H]N=C(c1c([H])c([H])c([H])c(Oc2c([H])c([H])c(N([H])[H])c([H])c2C(=O)N([H])c2c([H])c([H])c(-c3c([H])c([H])c([H])c([H])c3S(=O)(=O)N([H])[H])c([H])c2[H])c1[H])N([H])[H]


 44 47  0  0  0  0  0  0  0  0999 V2000
  -87.6243   30.4856   -1.1184 C   0  0  0  0  0  0  0  0  0  0  0  0
  -86.6601   29.6854   -0.4543 C   0  0  0  0  0  0  0  0  0  0  0  0
  -85.5603   30.2644    0.1197 C   0  0  0  0  0  0  0  0  0  0  0  0
  -85.4244   31.6271    0.0302 C   0  0  0  0  0  0  0  0  0  0  0  0
  -84.2718   32.2019    0.6197 N   0  0  0  0  0  0  0  0  0  0  0  0
  -86.3611   32.4005   -0.6071 C   0  0  0  0  0  0  0  0  0  0  0  0
  -87.5257   31.8182   -1.2101 C   0  0  0  0  0  0  0  0  0  0  0  0
  -84.3307   33.0325    1.2165 H   0  0  0  0  0  0  0  0  0  0  0  0
  -83.3685   31.7468    0.4112 H   0  0  0  0  0  0  0  0  0  0  0  0
  -88.6121   32.7926   -1.5018 C   0  0  0  0  0  0  0  0  0  0  0  0
  -89.4324   32.8504   -0.4930 O   0  0  0  0  0  0  0  0  0  0  0  0
  -88.8216   33.5419   -2.5643 N   0  0  0  0  0  0  0  0  0  0  0  0
  -89.6853   34.3257   -1.8054 H   0  0  0  0  0  0  0  0  0  0  0  0
  -89.0410   34.3267   -3.6772 C   0  0  0  0  0  0  0  0  0  0  0  0
  -89.2749   35.7124   -3.5151 C   0  0  0  0  0  0  0  0  0  0  0  0
  -89.5826   36.5271   -4.5808 C   0  0  0  0  0  0  0  0  0  0  0  0
  -89.6758   36.0273   -5.8547 C   0  0  0  0  0  0  0  0  0  0  0  0
  -89.4493   34.6885   -6.0423 C   0  0  0  0  0  0  0  0  0  0  0  0
  -89.1394   33.8594   -4.9779 C   0  0  0  0  0  0  0  0  0  0  0  0
  -90.0466   36.8421   -6.9893 C   0  0  0  0  0  0  0  0  0  0  0  0
  -91.3491   36.8886   -7.4494 C   0  0  0  0  0  0  0  0  0  0  0  0
  -91.7051   37.6297   -8.5472 C   0  0  0  0  0  0  0  0  0  0  0  0
  -90.7366   38.3494   -9.2124 C   0  0  0  0  0  0  0  0  0  0  0  0
  -89.4419   38.3169   -8.7714 C   0  0  0  0  0  0  0  0  0  0  0  0
  -89.0879   37.5644   -7.6566 C   0  0  0  0  0  0  0  0  0  0  0  0
  -87.4501   37.6002   -7.1484 S   0  0  0  0  0  0  0  0  0  0  0  0
  -86.4928   38.3717   -8.3988 N   0  0  0  0  0  0  0  0  0  0  0  0
  -86.8939   36.1868   -7.1045 O   0  0  0  0  0  0  0  0  0  0  0  0
  -87.2094   38.3268   -5.8569 O   0  0  0  0  0  0  0  0  0  0  0  0
  -86.3982   37.7523   -9.2311 H   0  0  0  0  0  0  0  0  0  0  0  0
  -86.9581   39.2468   -8.6913 H   0  0  0  0  0  0  0  0  0  0  0  0
  -88.7002   29.7731   -1.6990 O   0  0  0  0  0  0  0  0  0  0  0  0
  -89.9324   26.7991    0.0435 C   0  0  0  0  0  0  0  0  0  0  0  0
  -90.7400   27.3399    1.0222 C   0  0  0  0  0  0  0  0  0  0  0  0
  -90.9138   28.6946    1.1561 C   0  0  0  0  0  0  0  0  0  0  0  0
  -90.2274   29.5146    0.2448 C   0  0  0  0  0  0  0  0  0  0  0  0
  -89.4305   29.0465   -0.7280 C   0  0  0  0  0  0  0  0  0  0  0  0
  -89.2806   27.6344   -0.8263 C   0  0  0  0  0  0  0  0  0  0  0  0
  -90.6877   24.5530   -0.4553 N   0  0  0  0  0  0  0  0  0  0  0  0
  -89.7699   25.3460   -0.0908 C   0  0  0  0  0  0  0  0  0  0  0  0
  -88.5031   24.7874    0.2245 N   0  0  0  0  0  0  0  0  0  0  0  0
  -91.6522   24.7412   -0.7221 H   0  0  0  0  0  0  0  0  0  0  0  0
  -88.4856   24.1502    1.0621 H   0  0  0  0  0  0  0  0  0  0  0  0
  -87.6205   24.9397   -0.2714 H   0  0  0  0  0  0  0  0  0  0  0  0
 39 40  2  0  0  0
 40 41  1  0  0  0
 40 33  1  0  0  0
 33 34  2  0  0  0
 34 35  1  0  0  0
 35 36  2  0  0  0
 36 37  1  0  0  0
 37 32  1  0  0  0
 32  1  1  0  0  0
  1  2  2  0  0  0
  2  3  1  0  0  0
  3  4  2  0  0  0
  4  5  1  0  0  0
  4  6  1  0  0  0
  6  7  2  0  0  0
  7 10  1  0  0  0
 10 11  2  0  0  0
 10 12  1  0  0  0
 12 14  1  0  0  0
 14 15  2  0  0  0
 15 16  1  0  0  0
 16 17  2  0  0  0
 17 20  1  0  0  0
 20 21  2  0  0  0
 21 22  1  0  0  0
 22 23  2  0  0  0
 23 24  1  0  0  0
 24 25  2  0  0  0
 25 26  1  0  0  0
 26 27  1  0  0  0
 26 28  2  0  0  0
 26 29  2  0  0  0
 17 18  1  0  0  0
 18 19  2  0  0  0
 37 38  2  0  0  0
 38 33  1  0  0  0
  7  1  1  0  0  0
 19 14  1  0  0  0
 25 20  1  0  0  0
 39 42  1  0  0  0
 41 43  1  0  0  0
 41 44  1  0  0  0
  5  8  1  0  0  0
  5  9  1  0  0  0
 12 13  1  0  0  0
 27 30  1  0  0  0
 27 31  1  0  0  0
M  END
> <minimizedAffinity>
-8.28278

> <CNNscore>
0.1189572737

> <CNNaffinity>
6.0518288612

> <CNN_VS>
0.7199090719

> <CNNaffinity_variance>
0.0960989520

$$$$
[H]N=C(c1c([H])c([H])c([H])c(Oc2c([H])c([H])c(N([H])[H])c([H])c2C(=O)N([H])c2c([H])c([H])c(-c3c([H])c([H])c([H])c([H])c3S(=O)(=O)N([H])[H])c([H])c2[H])c1[H])N([H])[H]


 44 47  0  0  0  0  0  0  0  0999 V2000
  -85.6873   29.4452    1.5684 C   0  0  0  0  0  0  0  0  0  0  0  0
  -85.4218   28.3429    2.4201 C   0  0  0  0  0  0  0  0  0  0  0  0
  -84.1314   27.9681    2.6814 C   0  0  0  0  0  0  0  0  0  0  0  0
  -83.1174   28.6853    2.0974 C   0  0  0  0  0  0  0  0  0  0  0  0
  -81.7911   28.2703    2.3716 N   0  0  0  0  0  0  0  0  0  0  0  0
  -83.3756   29.7552    1.2787 C   0  0  0  0  0  0  0  0  0  0  0  0
  -84.7191   30.1721    0.9954 C   0  0  0  0  0  0  0  0  0  0  0  0
  -81.0607   28.9407    2.6299 H   0  0  0  0  0  0  0  0  0  0  0  0
  -81.5953   27.2596    2.2900 H   0  0  0  0  0  0  0  0  0  0  0  0
  -84.8246   31.5464    0.4343 C   0  0  0  0  0  0  0  0  0  0  0  0
  -83.8110   32.2608    0.8292 O   0  0  0  0  0  0  0  0  0  0  0  0
  -85.7392   32.0783   -0.3499 N   0  0  0  0  0  0  0  0  0  0  0  0
  -84.8458   33.1025   -0.6485 H   0  0  0  0  0  0  0  0  0  0  0  0
  -86.6971   32.6355   -1.1713 C   0  0  0  0  0  0  0  0  0  0  0  0
  -88.0608   32.5513   -0.8048 C   0  0  0  0  0  0  0  0  0  0  0  0
  -89.0638   33.0143   -1.6256 C   0  0  0  0  0  0  0  0  0  0  0  0
  -88.7825   33.5815   -2.8423 C   0  0  0  0  0  0  0  0  0  0  0  0
  -87.4690   33.6806   -3.2214 C   0  0  0  0  0  0  0  0  0  0  0  0
  -86.4517   33.2181   -2.4042 C   0  0  0  0  0  0  0  0  0  0  0  0
  -89.8114   34.0316   -3.7521 C   0  0  0  0  0  0  0  0  0  0  0  0
  -90.0695   35.3763   -3.9411 C   0  0  0  0  0  0  0  0  0  0  0  0
  -91.0675   35.8136   -4.7741 C   0  0  0  0  0  0  0  0  0  0  0  0
  -91.8366   34.8862   -5.4427 C   0  0  0  0  0  0  0  0  0  0  0  0
  -91.5954   33.5507   -5.2694 C   0  0  0  0  0  0  0  0  0  0  0  0
  -90.5808   33.1139   -4.4242 C   0  0  0  0  0  0  0  0  0  0  0  0
  -90.3214   31.4243   -4.2844 S   0  0  0  0  0  0  0  0  0  0  0  0
  -91.4305   30.5966   -5.3614 N   0  0  0  0  0  0  0  0  0  0  0  0
  -90.7525   30.9498   -2.9067 O   0  0  0  0  0  0  0  0  0  0  0  0
  -88.9266   30.9744   -4.6100 O   0  0  0  0  0  0  0  0  0  0  0  0
  -92.4070   30.6482   -5.0021 H   0  0  0  0  0  0  0  0  0  0  0  0
  -91.3984   31.0450   -6.2919 H   0  0  0  0  0  0  0  0  0  0  0  0
  -87.0581   29.7185    1.3479 O   0  0  0  0  0  0  0  0  0  0  0  0
  -89.5407   28.3437   -0.9643 C   0  0  0  0  0  0  0  0  0  0  0  0
  -88.7629   27.9297   -2.0255 C   0  0  0  0  0  0  0  0  0  0  0  0
  -87.3992   28.0838   -2.0324 C   0  0  0  0  0  0  0  0  0  0  0  0
  -86.8241   28.6871   -0.9013 C   0  0  0  0  0  0  0  0  0  0  0  0
  -87.5285   29.1078    0.1605 C   0  0  0  0  0  0  0  0  0  0  0  0
  -88.9399   28.9275    0.1207 C   0  0  0  0  0  0  0  0  0  0  0  0
  -91.7034   28.0704   -2.0189 N   0  0  0  0  0  0  0  0  0  0  0  0
  -90.9971   28.1579   -0.9713 C   0  0  0  0  0  0  0  0  0  0  0  0
  -91.6638   28.0875    0.2805 N   0  0  0  0  0  0  0  0  0  0  0  0
  -91.4313   28.0968   -2.9999 H   0  0  0  0  0  0  0  0  0  0  0  0
  -92.3262   28.8794    0.4854 H   0  0  0  0  0  0  0  0  0  0  0  0
  -91.5663   27.3575    0.9917 H   0  0  0  0  0  0  0  0  0  0  0  0
 39 40  2  0  0  0
 40 41  1  0  0  0
 40 33  1  0  0  0
 33 34  2  0  0  0
 34 35  1  0  0  0
 35 36  2  0  0  0
 36 37  1  0  0  0
 37 32  1  0  0  0
 32  1  1  0  0  0
  1  2  2  0  0  0
  2  3  1  0  0  0
  3  4  2  0  0  0
  4  5  1  0  0  0
  4  6  1  0  0  0
  6  7  2  0  0  0
  7 10  1  0  0  0
 10 11  2  0  0  0
 10 12  1  0  0  0
 12 14  1  0  0  0
 14 15  2  0  0  0
 15 16  1  0  0  0
 16 17  2  0  0  0
 17 20  1  0  0  0
 20 21  2  0  0  0
 21 22  1  0  0  0
 22 23  2  0  0  0
 23 24  1  0  0  0
 24 25  2  0  0  0
 25 26  1  0  0  0
 26 27  1  0  0  0
 26 28  2  0  0  0
 26 29  2  0  0  0
 17 18  1  0  0  0
 18 19  2  0  0  0
 37 38  2  0  0  0
 38 33  1  0  0  0
  7  1  1  0  0  0
 19 14  1  0  0  0
 25 20  1  0  0  0
 39 42  1  0  0  0
 41 43  1  0  0  0
 41 44  1  0  0  0
  5  8  1  0  0  0
  5  9  1  0  0  0
 12 13  1  0  0  0
 27 30  1  0  0  0
 27 31  1  0  0  0
M  END
> <minimizedAffinity>
-9.29480

> <CNNscore>
0.1086628884

> <CNNaffinity>
6.5117378235

> <CNN_VS>
0.7075842619

> <CNNaffinity_variance>
0.3293657601

$$$$
[H]N=C(c1c([H])c([H])c([H])c(Oc2c([H])c([H])c(N([H])[H])c([H])c2C(=O)N([H])c2c([H])c([H])c(-c3c([H])c([H])c([H])c([H])c3S(=O)(=O)N([H])[H])c([H])c2[H])c1[H])N([H])[H]


 44 47  0  0  0  0  0  0  0  0999 V2000
  -85.6918   31.0172    0.5719 C   0  0  0  0  0  0  0  0  0  0  0  0
  -85.2804   32.1602   -0.1597 C   0  0  0  0  0  0  0  0  0  0  0  0
  -83.9624   32.5300   -0.1780 C   0  0  0  0  0  0  0  0  0  0  0  0
  -83.0656   31.7675    0.5276 C   0  0  0  0  0  0  0  0  0  0  0  0
  -81.7099   32.1774    0.5049 N   0  0  0  0  0  0  0  0  0  0  0  0
  -83.4642   30.6584    1.2297 C   0  0  0  0  0  0  0  0  0  0  0  0
  -84.8384   30.2463    1.2584 C   0  0  0  0  0  0  0  0  0  0  0  0
  -80.9498   31.5116    0.3364 H   0  0  0  0  0  0  0  0  0  0  0  0
  -81.5256   33.1792    0.6749 H   0  0  0  0  0  0  0  0  0  0  0  0
  -85.0444   28.8451    1.7157 C   0  0  0  0  0  0  0  0  0  0  0  0
  -83.9652   28.4107    2.2992 O   0  0  0  0  0  0  0  0  0  0  0  0
  -86.0983   28.0622    1.6136 N   0  0  0  0  0  0  0  0  0  0  0  0
  -85.5521   27.2470    2.6002 H   0  0  0  0  0  0  0  0  0  0  0  0
  -87.2023   27.2420    1.5068 C   0  0  0  0  0  0  0  0  0  0  0  0
  -87.3117   26.3647    0.4026 C   0  0  0  0  0  0  0  0  0  0  0  0
  -88.4286   25.5861    0.2008 C   0  0  0  0  0  0  0  0  0  0  0  0
  -89.4905   25.6273    1.0678 C   0  0  0  0  0  0  0  0  0  0  0  0
  -89.4101   26.4652    2.1496 C   0  0  0  0  0  0  0  0  0  0  0  0
  -88.2918   27.2531    2.3626 C   0  0  0  0  0  0  0  0  0  0  0  0
  -90.6996   24.8632    0.8604 C   0  0  0  0  0  0  0  0  0  0  0  0
  -90.8761   23.6205    1.4393 C   0  0  0  0  0  0  0  0  0  0  0  0
  -92.0037   22.8712    1.2199 C   0  0  0  0  0  0  0  0  0  0  0  0
  -92.9904   23.3704    0.3980 C   0  0  0  0  0  0  0  0  0  0  0  0
  -92.8345   24.5990   -0.1832 C   0  0  0  0  0  0  0  0  0  0  0  0
  -91.6891   25.3545    0.0445 C   0  0  0  0  0  0  0  0  0  0  0  0
  -91.5826   26.8980   -0.6958 S   0  0  0  0  0  0  0  0  0  0  0  0
  -93.0626   27.1939   -1.5885 N   0  0  0  0  0  0  0  0  0  0  0  0
  -90.5186   26.8761   -1.7805 O   0  0  0  0  0  0  0  0  0  0  0  0
  -91.3731   28.0384    0.2578 O   0  0  0  0  0  0  0  0  0  0  0  0
  -93.1079   26.5993   -2.4427 H   0  0  0  0  0  0  0  0  0  0  0  0
  -93.8725   26.9683   -0.9875 H   0  0  0  0  0  0  0  0  0  0  0  0
  -87.0816   30.7523    0.5421 O   0  0  0  0  0  0  0  0  0  0  0  0
  -88.8189   31.4899   -2.5943 C   0  0  0  0  0  0  0  0  0  0  0  0
  -88.5915   30.3498   -3.3366 C   0  0  0  0  0  0  0  0  0  0  0  0
  -87.8611   29.2961   -2.8471 C   0  0  0  0  0  0  0  0  0  0  0  0
  -87.3503   29.4298   -1.5451 C   0  0  0  0  0  0  0  0  0  0  0  0
  -87.5400   30.5126   -0.7757 C   0  0  0  0  0  0  0  0  0  0  0  0
  -88.3030   31.5801   -1.3274 C   0  0  0  0  0  0  0  0  0  0  0  0
  -89.6240   33.7730   -2.6519 N   0  0  0  0  0  0  0  0  0  0  0  0
  -89.6140   32.6010   -3.1319 C   0  0  0  0  0  0  0  0  0  0  0  0
  -90.4413   32.3425   -4.2566 N   0  0  0  0  0  0  0  0  0  0  0  0
  -89.1150   34.1647   -1.8617 H   0  0  0  0  0  0  0  0  0  0  0  0
  -91.4767   32.4198   -4.0838 H   0  0  0  0  0  0  0  0  0  0  0  0
  -90.1377   32.0923   -5.2019 H   0  0  0  0  0  0  0  0  0  0  0  0
 39 40  2  0  0  0
 40 41  1  0  0  0
 40 33  1  0  0  0
 33 34  2  0  0  0
 34 35  1  0  0  0
 35 36  2  0  0  0
 36 37  1  0  0  0
 37 32  1  0  0  0
 32  1  1  0  0  0
  1  2  2  0  0  0
  2  3  1  0  0  0
  3  4  2  0  0  0
  4  5  1  0  0  0
  4  6  1  0  0  0
  6  7  2  0  0  0
  7 10  1  0  0  0
 10 11  2  0  0  0
 10 12  1  0  0  0
 12 14  1  0  0  0
 14 15  2  0  0  0
 15 16  1  0  0  0
 16 17  2  0  0  0
 17 20  1  0  0  0
 20 21  2  0  0  0
 21 22  1  0  0  0
 22 23  2  0  0  0
 23 24  1  0  0  0
 24 25  2  0  0  0
 25 26  1  0  0  0
 26 27  1  0  0  0
 26 28  2  0  0  0
 26 29  2  0  0  0
 17 18  1  0  0  0
 18 19  2  0  0  0
 37 38  2  0  0  0
 38 33  1  0  0  0
  7  1  1  0  0  0
 19 14  1  0  0  0
 25 20  1  0  0  0
 39 42  1  0  0  0
 41 43  1  0  0  0
 41 44  1  0  0  0
  5  8  1  0  0  0
  5  9  1  0  0  0
 12 13  1  0  0  0
 27 30  1  0  0  0
 27 31  1  0  0  0
M  END
> <minimizedAffinity>
-9.37576

> <CNNscore>
0.0876926482

> <CNNaffinity>
6.4998979568

> <CNN_VS>
0.5699932575

> <CNNaffinity_variance>
0.2868810296

$$$$
[H]N=C(c1c([H])c([H])c([H])c(Oc2c([H])c([H])c(N([H])[H])c([H])c2C(=O)N([H])c2c([H])c([H])c(-c3c([H])c([H])c([H])c([H])c3S(=O)(=O)N([H])[H])c([H])c2[H])c1[H])N([H])[H]


 44 47  0  0  0  0  0  0  0  0999 V2000
  -85.9674   31.1509    0.3070 C   0  0  0  0  0  0  0  0  0  0  0  0
  -85.5219   32.3128   -0.3731 C   0  0  0  0  0  0  0  0  0  0  0  0
  -84.1976   32.6591   -0.3524 C   0  0  0  0  0  0  0  0  0  0  0  0
  -83.3282   31.8547    0.3410 C   0  0  0  0  0  0  0  0  0  0  0  0
  -81.9654   32.2406    0.3595 N   0  0  0  0  0  0  0  0  0  0  0  0
  -83.7597   30.7276    0.9932 C   0  0  0  0  0  0  0  0  0  0  0  0
  -85.1412   30.3397    0.9802 C   0  0  0  0  0  0  0  0  0  0  0  0
  -81.2138   31.5678    0.1805 H   0  0  0  0  0  0  0  0  0  0  0  0
  -81.7671   33.2319    0.5705 H   0  0  0  0  0  0  0  0  0  0  0  0
  -85.3804   28.9264    1.3804 C   0  0  0  0  0  0  0  0  0  0  0  0
  -84.2955   28.4269    1.8972 O   0  0  0  0  0  0  0  0  0  0  0  0
  -86.4660   28.1868    1.2868 N   0  0  0  0  0  0  0  0  0  0  0  0
  -85.9110   27.3067    2.2107 H   0  0  0  0  0  0  0  0  0  0  0  0
  -87.6031   27.4121    1.1887 C   0  0  0  0  0  0  0  0  0  0  0  0
  -87.6068   26.2894    0.3281 C   0  0  0  0  0  0  0  0  0  0  0  0
  -88.7379   25.5315    0.1271 C   0  0  0  0  0  0  0  0  0  0  0  0
  -89.9180   25.8338    0.7573 C   0  0  0  0  0  0  0  0  0  0  0  0
  -89.9425   26.9137    1.6010 C   0  0  0  0  0  0  0  0  0  0  0  0
  -88.8111   27.6835    1.8107 C   0  0  0  0  0  0  0  0  0  0  0  0
  -91.1377   25.0921    0.5312 C   0  0  0  0  0  0  0  0  0  0  0  0
  -91.4449   23.9657    1.2711 C   0  0  0  0  0  0  0  0  0  0  0  0
  -92.5816   23.2336    1.0404 C   0  0  0  0  0  0  0  0  0  0  0  0
  -93.4435   23.6313    0.0417 C   0  0  0  0  0  0  0  0  0  0  0  0
  -93.1572   24.7443   -0.7006 C   0  0  0  0  0  0  0  0  0  0  0  0
  -92.0034   25.4831   -0.4606 C   0  0  0  0  0  0  0  0  0  0  0  0
  -91.7314   26.8829   -1.4136 S   0  0  0  0  0  0  0  0  0  0  0  0
  -92.0078   28.3000   -0.4184 N   0  0  0  0  0  0  0  0  0  0  0  0
  -92.8042   26.9930   -2.4842 O   0  0  0  0  0  0  0  0  0  0  0  0
  -90.3540   26.9835   -2.0022 O   0  0  0  0  0  0  0  0  0  0  0  0
  -93.0231   28.4244   -0.2209 H   0  0  0  0  0  0  0  0  0  0  0  0
  -91.5096   28.1865    0.4799 H   0  0  0  0  0  0  0  0  0  0  0  0
  -87.3607   30.9125    0.2409 O   0  0  0  0  0  0  0  0  0  0  0  0
  -89.3544   31.4767   -2.7767 C   0  0  0  0  0  0  0  0  0  0  0  0
  -89.2803   32.8453   -2.9318 C   0  0  0  0  0  0  0  0  0  0  0  0
  -88.5805   33.6399   -2.0587 C   0  0  0  0  0  0  0  0  0  0  0  0
  -87.9369   32.9934   -0.9902 C   0  0  0  0  0  0  0  0  0  0  0  0
  -87.9719   31.6672   -0.7892 C   0  0  0  0  0  0  0  0  0  0  0  0
  -88.7114   30.8849   -1.7206 C   0  0  0  0  0  0  0  0  0  0  0  0
  -89.9785   30.7132   -4.9885 N   0  0  0  0  0  0  0  0  0  0  0  0
  -90.0979   30.6429   -3.7295 C   0  0  0  0  0  0  0  0  0  0  0  0
  -91.0266   29.7043   -3.2071 N   0  0  0  0  0  0  0  0  0  0  0  0
  -89.3812   31.3072   -5.5605 H   0  0  0  0  0  0  0  0  0  0  0  0
  -92.0364   29.8904   -3.4386 H   0  0  0  0  0  0  0  0  0  0  0  0
  -90.8169   28.8799   -2.6374 H   0  0  0  0  0  0  0  0  0  0  0  0
 39 40  2  0  0  0
 40 41  1  0  0  0
 40 33  1  0  0  0
 33 34  2  0  0  0
 34 35  1  0  0  0
 35 36  2  0  0  0
 36 37  1  0  0  0
 37 32  1  0  0  0
 32  1  1  0  0  0
  1  2  2  0  0  0
  2  3  1  0  0  0
  3  4  2  0  0  0
  4  5  1  0  0  0
  4  6  1  0  0  0
  6  7  2  0  0  0
  7 10  1  0  0  0
 10 11  2  0  0  0
 10 12  1  0  0  0
 12 14  1  0  0  0
 14 15  2  0  0  0
 15 16  1  0  0  0
 16 17  2  0  0  0
 17 20  1  0  0  0
 20 21  2  0  0  0
 21 22  1  0  0  0
 22 23  2  0  0  0
 23 24  1  0  0  0
 24 25  2  0  0  0
 25 26  1  0  0  0
 26 27  1  0  0  0
 26 28  2  0  0  0
 26 29  2  0  0  0
 17 18  1  0  0  0
 18 19  2  0  0  0
 37 38  2  0  0  0
 38 33  1  0  0  0
  7  1  1  0  0  0
 19 14  1  0  0  0
 25 20  1  0  0  0
 39 42  1  0  0  0
 41 43  1  0  0  0
 41 44  1  0  0  0
  5  8  1  0  0  0
  5  9  1  0  0  0
 12 13  1  0  0  0
 27 30  1  0  0  0
 27 31  1  0  0  0
M  END
> <minimizedAffinity>
-9.27298

> <CNNscore>
0.0802563429

> <CNNaffinity>
6.4797182083

> <CNN_VS>
0.5200384855

> <CNNaffinity_variance>
0.1220243946

$$$$
[H]N=C(c1c([H])c([H])c([H])c(Oc2c([H])c([H])c(N([H])[H])c([H])c2C(=O)N([H])c2c([H])c([H])c(-c3c([H])c([H])c([H])c([H])c3S(=O)(=O)N([H])[H])c([H])c2[H])c1[H])N([H])[H]


 44 47  0  0  0  0  0  0  0  0999 V2000
  -86.4401   32.4262   -0.5498 C   0  0  0  0  0  0  0  0  0  0  0  0
  -85.6405   33.4587   -1.1026 C   0  0  0  0  0  0  0  0  0  0  0  0
  -84.2902   33.4805   -0.8787 C   0  0  0  0  0  0  0  0  0  0  0  0
  -83.7447   32.4830   -0.1100 C   0  0  0  0  0  0  0  0  0  0  0  0
  -82.3478   32.5342    0.1192 N   0  0  0  0  0  0  0  0  0  0  0  0
  -84.5184   31.4814    0.4190 C   0  0  0  0  0  0  0  0  0  0  0  0
  -85.9345   31.4326    0.1926 C   0  0  0  0  0  0  0  0  0  0  0  0
  -81.7553   31.7049    0.0153 H   0  0  0  0  0  0  0  0  0  0  0  0
  -81.9579   33.4471    0.4043 H   0  0  0  0  0  0  0  0  0  0  0  0
  -86.5527   30.1109    0.4856 C   0  0  0  0  0  0  0  0  0  0  0  0
  -86.0082   29.5981    1.5506 O   0  0  0  0  0  0  0  0  0  0  0  0
  -87.5055   29.4574   -0.1464 N   0  0  0  0  0  0  0  0  0  0  0  0
  -87.6752   28.6675    0.9865 H   0  0  0  0  0  0  0  0  0  0  0  0
  -88.5035   28.7729   -0.8084 C   0  0  0  0  0  0  0  0  0  0  0  0
  -88.2389   28.2199   -2.0832 C   0  0  0  0  0  0  0  0  0  0  0  0
  -89.2194   27.6009   -2.8247 C   0  0  0  0  0  0  0  0  0  0  0  0
  -90.5038   27.4924   -2.3560 C   0  0  0  0  0  0  0  0  0  0  0  0
  -90.7880   28.0151   -1.1212 C   0  0  0  0  0  0  0  0  0  0  0  0
  -89.8100   28.6402   -0.3666 C   0  0  0  0  0  0  0  0  0  0  0  0
  -91.5700   26.8952   -3.1276 C   0  0  0  0  0  0  0  0  0  0  0  0
  -92.3151   27.6377   -4.0243 C   0  0  0  0  0  0  0  0  0  0  0  0
  -93.3526   27.0898   -4.7346 C   0  0  0  0  0  0  0  0  0  0  0  0
  -93.6627   25.7601   -4.5497 C   0  0  0  0  0  0  0  0  0  0  0  0
  -92.9359   25.0085   -3.6674 C   0  0  0  0  0  0  0  0  0  0  0  0
  -91.8840   25.5699   -2.9511 C   0  0  0  0  0  0  0  0  0  0  0  0
  -91.0018   24.5540   -1.8876 S   0  0  0  0  0  0  0  0  0  0  0  0
  -91.4969   22.8940   -2.1597 N   0  0  0  0  0  0  0  0  0  0  0  0
  -91.4295   24.8156   -0.4531 O   0  0  0  0  0  0  0  0  0  0  0  0
  -89.5102   24.6304   -2.0398 O   0  0  0  0  0  0  0  0  0  0  0  0
  -92.4582   22.7272   -1.7945 H   0  0  0  0  0  0  0  0  0  0  0  0
  -91.4927   22.7005   -3.1749 H   0  0  0  0  0  0  0  0  0  0  0  0
  -87.8249   32.5262   -0.8231 O   0  0  0  0  0  0  0  0  0  0  0  0
  -89.9800   31.4747   -3.5888 C   0  0  0  0  0  0  0  0  0  0  0  0
  -89.0692   31.1866   -4.5838 C   0  0  0  0  0  0  0  0  0  0  0  0
  -87.7170   31.3256   -4.3954 C   0  0  0  0  0  0  0  0  0  0  0  0
  -87.2963   31.7782   -3.1336 C   0  0  0  0  0  0  0  0  0  0  0  0
  -88.1344   32.0721   -2.1277 C   0  0  0  0  0  0  0  0  0  0  0  0
  -89.5278   31.9134   -2.3714 C   0  0  0  0  0  0  0  0  0  0  0  0
  -92.2945   31.3423   -2.8890 N   0  0  0  0  0  0  0  0  0  0  0  0
  -91.4223   31.3071   -3.8067 C   0  0  0  0  0  0  0  0  0  0  0  0
  -91.8709   31.0733   -5.1335 N   0  0  0  0  0  0  0  0  0  0  0  0
  -92.1899   31.4935   -1.8875 H   0  0  0  0  0  0  0  0  0  0  0  0
  -92.3010   30.1281   -5.3056 H   0  0  0  0  0  0  0  0  0  0  0  0
  -91.8185   31.7196   -5.9258 H   0  0  0  0  0  0  0  0  0  0  0  0
 39 40  2  0  0  0
 40 41  1  0  0  0
 40 33  1  0  0  0
 33 34  2  0  0  0
 34 35  1  0  0  0
 35 36  2  0  0  0
 36 37  1  0  0  0
 37 32  1  0  0  0
 32  1  1  0  0  0
  1  2  2  0  0  0
  2  3  1  0  0  0
  3  4  2  0  0  0
  4  5  1  0  0  0
  4  6  1  0  0  0
  6  7  2  0  0  0
  7 10  1  0  0  0
 10 11  2  0  0  0
 10 12  1  0  0  0
 12 14  1  0  0  0
 14 15  2  0  0  0
 15 16  1  0  0  0
 16 17  2  0  0  0
 17 20  1  0  0  0
 20 21  2  0  0  0
 21 22  1  0  0  0
 22 23  2  0  0  0
 23 24  1  0  0  0
 24 25  2  0  0  0
 25 26  1  0  0  0
 26 27  1  0  0  0
 26 28  2  0  0  0
 26 29  2  0  0  0
 17 18  1  0  0  0
 18 19  2  0  0  0
 37 38  2  0  0  0
 38 33  1  0  0  0
  7  1  1  0  0  0
 19 14  1  0  0  0
 25 20  1  0  0  0
 39 42  1  0  0  0
 41 43  1  0  0  0
 41 44  1  0  0  0
  5  8  1  0  0  0
  5  9  1  0  0  0
 12 13  1  0  0  0
 27 30  1  0  0  0
 27 31  1  0  0  0
M  END
> <minimizedAffinity>
-8.95354

> <CNNscore>
0.0659197345

> <CNNaffinity>
6.1358652115

> <CNN_VS>
0.4044746161

> <CNNaffinity_variance>
0.2924057543

$$$$
[H]N1C(=NC2([H])C([H])([H])C([H])([H])C([H])([H])C([H])([H])C([H])([H])C([H])([H])C2([H])[H])O[C@@]2([H])C([H])([H])C([H])([H])C([H])([H])C([H])([H])[C@@]2([H])S1(=O)=O


 22 24  0  0  0  0  0  0  0  0999 V2000
  -83.6204   27.6562    3.0776 O   0  0  0  0  0  0  0  0  0  0  0  0
  -84.6481   28.5685    2.4840 S   0  0  0  0  0  0  0  0  0  0  0  0
  -85.1738   29.5537    3.4904 O   0  0  0  0  0  0  0  0  0  0  0  0
  -85.9815   27.6591    1.8168 N   0  0  0  0  0  0  0  0  0  0  0  0
  -86.6488   28.1876    0.6911 C   0  0  0  0  0  0  0  0  0  0  0  0
  -87.8670   27.8769    0.4810 N   0  0  0  0  0  0  0  0  0  0  0  0
  -86.0106   29.0265   -0.1766 O   0  0  0  0  0  0  0  0  0  0  0  0
  -84.9495   29.8686    0.1031 C   0  0  0  0  0  0  0  0  0  0  0  0
  -85.5396   31.2544    0.4049 C   0  0  0  0  0  0  0  0  0  0  0  0
  -84.4554   32.2563    0.1267 C   0  0  0  0  0  0  0  0  0  0  0  0
  -83.1246   31.7468    0.5719 C   0  0  0  0  0  0  0  0  0  0  0  0
  -83.3071   30.7176    1.6892 C   0  0  0  0  0  0  0  0  0  0  0  0
  -83.9742   29.4773    1.1316 C   0  0  0  0  0  0  0  0  0  0  0  0
  -86.2015   26.7867    2.2838 H   0  0  0  0  0  0  0  0  0  0  0  0
  -88.6332   27.0063    1.3262 C   0  0  0  0  0  0  0  0  0  0  0  0
  -89.8246   27.6989    1.9429 C   0  0  0  0  0  0  0  0  0  0  0  0
  -91.0965   27.5356    1.1820 C   0  0  0  0  0  0  0  0  0  0  0  0
  -91.1103   28.1521   -0.1754 C   0  0  0  0  0  0  0  0  0  0  0  0
  -91.4916   27.1532   -1.2619 C   0  0  0  0  0  0  0  0  0  0  0  0
  -90.7990   25.8384   -1.1071 C   0  0  0  0  0  0  0  0  0  0  0  0
  -89.3372   26.0522   -0.8825 C   0  0  0  0  0  0  0  0  0  0  0  0
  -89.0286   25.7617    0.5681 C   0  0  0  0  0  0  0  0  0  0  0  0
  1  2  2  0  0  0
  2  3  2  0  0  0
  2  4  1  0  0  0
  4  5  1  0  0  0
  5  6  2  0  0  0
  6 15  1  0  0  0
 15 16  1  0  0  0
 16 17  1  0  0  0
 17 18  1  0  0  0
 18 19  1  0  0  0
 19 20  1  0  0  0
 20 21  1  0  0  0
 21 22  1  0  0  0
  5  7  1  0  0  0
  7  8  1  0  0  0
  8  9  1  0  0  0
  9 10  1  0  0  0
 10 11  1  0  0  0
 11 12  1  0  0  0
 12 13  1  0  0  0
 13  2  1  0  0  0
 22 15  1  0  0  0
 13  8  1  0  0  0
  4 14  1  0  0  0
M  END
> <minimizedAffinity>
-8.29255

> <CNNscore>
0.5378351212

> <CNNaffinity>
6.4401254654

> <CNN_VS>
3.4637255669

> <CNNaffinity_variance>
0.1428480893

$$$$
[H]N1C(=NC2([H])C([H])([H])C([H])([H])C([H])([H])C([H])([H])C([H])([H])C([H])([H])C2([H])[H])O[C@@]2([H])C([H])([H])C([H])([H])C([H])([H])C([H])([H])[C@@]2([H])S1(=O)=O


 22 24  0  0  0  0  0  0  0  0999 V2000
  -90.9865   29.4308   -1.2172 O   0  0  0  0  0  0  0  0  0  0  0  0
  -89.7336   30.0419   -1.7627 S   0  0  0  0  0  0  0  0  0  0  0  0
  -89.1008   29.1792   -2.8188 O   0  0  0  0  0  0  0  0  0  0  0  0
  -88.5755   30.3370   -0.4894 N   0  0  0  0  0  0  0  0  0  0  0  0
  -87.7072   31.4415   -0.6238 C   0  0  0  0  0  0  0  0  0  0  0  0
  -86.5724   31.4214   -0.0438 N   0  0  0  0  0  0  0  0  0  0  0  0
  -88.0631   32.5312   -1.3654 O   0  0  0  0  0  0  0  0  0  0  0  0
  -88.9355   32.5632   -2.4383 C   0  0  0  0  0  0  0  0  0  0  0  0
  -88.0872   32.4528   -3.7142 C   0  0  0  0  0  0  0  0  0  0  0  0
  -88.8953   33.0608   -4.8251 C   0  0  0  0  0  0  0  0  0  0  0  0
  -90.3408   32.7117   -4.6923 C   0  0  0  0  0  0  0  0  0  0  0  0
  -90.4924   31.4050   -3.9110 C   0  0  0  0  0  0  0  0  0  0  0  0
  -90.0639   31.6210   -2.4743 C   0  0  0  0  0  0  0  0  0  0  0  0
  -88.5959   29.6873    0.2886 H   0  0  0  0  0  0  0  0  0  0  0  0
  -86.0970   30.3303    0.7579 C   0  0  0  0  0  0  0  0  0  0  0  0
  -85.1751   29.4097   -0.0051 C   0  0  0  0  0  0  0  0  0  0  0  0
  -83.7249   29.7207    0.1490 C   0  0  0  0  0  0  0  0  0  0  0  0
  -83.2937   31.0372   -0.4022 C   0  0  0  0  0  0  0  0  0  0  0  0
  -82.5697   31.8901    0.6331 C   0  0  0  0  0  0  0  0  0  0  0  0
  -83.2511   31.8874    1.9628 C   0  0  0  0  0  0  0  0  0  0  0  0
  -84.7126   32.1473    1.7905 C   0  0  0  0  0  0  0  0  0  0  0  0
  -85.4590   30.8538    2.0223 C   0  0  0  0  0  0  0  0  0  0  0  0
  1  2  2  0  0  0
  2  3  2  0  0  0
  2  4  1  0  0  0
  4  5  1  0  0  0
  5  6  2  0  0  0
  6 15  1  0  0  0
 15 16  1  0  0  0
 16 17  1  0  0  0
 17 18  1  0  0  0
 18 19  1  0  0  0
 19 20  1  0  0  0
 20 21  1  0  0  0
 21 22  1  0  0  0
  5  7  1  0  0  0
  7  8  1  0  0  0
  8  9  1  0  0  0
  9 10  1  0  0  0
 10 11  1  0  0  0
 11 12  1  0  0  0
 12 13  1  0  0  0
 13  2  1  0  0  0
 22 15  1  0  0  0
 13  8  1  0  0  0
  4 14  1  0  0  0
M  END
> <minimizedAffinity>
-6.17288

> <CNNscore>
0.2738918662

> <CNNaffinity>
5.6703329086

> <CNN_VS>
1.5530580282

> <CNNaffinity_variance>
0.2413447648

$$$$
[H]N1C(=NC2([H])C([H])([H])C([H])([H])C([H])([H])C([H])([H])C([H])([H])C([H])([H])C2([H])[H])O[C@@]2([H])C([H])([H])C([H])([H])C([H])([H])C([H])([H])[C@@]2([H])S1(=O)=O


 22 24  0  0  0  0  0  0  0  0999 V2000
  -89.1479   25.1326   -0.7602 O   0  0  0  0  0  0  0  0  0  0  0  0
  -89.2533   26.2621    0.2164 S   0  0  0  0  0  0  0  0  0  0  0  0
  -90.4953   27.0804   -0.0021 O   0  0  0  0  0  0  0  0  0  0  0  0
  -87.8538   27.3026    0.1232 N   0  0  0  0  0  0  0  0  0  0  0  0
  -87.4258   27.9478    1.3032 C   0  0  0  0  0  0  0  0  0  0  0  0
  -86.7859   29.0470    1.2202 N   0  0  0  0  0  0  0  0  0  0  0  0
  -87.6862   27.4136    2.5323 O   0  0  0  0  0  0  0  0  0  0  0  0
  -88.7385   26.5848    2.8774 C   0  0  0  0  0  0  0  0  0  0  0  0
  -89.8458   27.4778    3.4572 C   0  0  0  0  0  0  0  0  0  0  0  0
  -90.6881   26.6032    4.3419 C   0  0  0  0  0  0  0  0  0  0  0  0
  -90.8692   25.2476    3.7433 C   0  0  0  0  0  0  0  0  0  0  0  0
  -90.7174   25.3241    2.2228 C   0  0  0  0  0  0  0  0  0  0  0  0
  -89.2821   25.6587    1.8730 C   0  0  0  0  0  0  0  0  0  0  0  0
  -87.4200   27.3824   -0.7895 H   0  0  0  0  0  0  0  0  0  0  0  0
  -86.4586   29.6969   -0.0166 C   0  0  0  0  0  0  0  0  0  0  0  0
  -86.7973   31.1682   -0.0052 C   0  0  0  0  0  0  0  0  0  0  0  0
  -85.6658   32.0598    0.3797 C   0  0  0  0  0  0  0  0  0  0  0  0
  -85.1717   31.8949    1.7767 C   0  0  0  0  0  0  0  0  0  0  0  0
  -83.6730   31.6226    1.8333 C   0  0  0  0  0  0  0  0  0  0  0  0
  -83.2296   30.6177    0.8204 C   0  0  0  0  0  0  0  0  0  0  0  0
  -84.1254   29.4222    0.8578 C   0  0  0  0  0  0  0  0  0  0  0  0
  -85.0108   29.4494   -0.3665 C   0  0  0  0  0  0  0  0  0  0  0  0
  1  2  2  0  0  0
  2  3  2  0  0  0
  2  4  1  0  0  0
  4  5  1  0  0  0
  5  6  2  0  0  0
  6 15  1  0  0  0
 15 16  1  0  0  0
 16 17  1  0  0  0
 17 18  1  0  0  0
 18 19  1  0  0  0
 19 20  1  0  0  0
 20 21  1  0  0  0
 21 22  1  0  0  0
  5  7  1  0  0  0
  7  8  1  0  0  0
  8  9  1  0  0  0
  9 10  1  0  0  0
 10 11  1  0  0  0
 11 12  1  0  0  0
 12 13  1  0  0  0
 13  2  1  0  0  0
 22 15  1  0  0  0
 13  8  1  0  0  0
  4 14  1  0  0  0
M  END
> <minimizedAffinity>
-7.43578

> <CNNscore>
0.2640925050

> <CNNaffinity>
5.7529954910

> <CNN_VS>
1.5193229914

> <CNNaffinity_variance>
0.1996650845

$$$$
[H]N1C(=NC2([H])C([H])([H])C([H])([H])C([H])([H])C([H])([H])C([H])([H])C([H])([H])C2([H])[H])O[C@@]2([H])C([H])([H])C([H])([H])C([H])([H])C([H])([H])[C@@]2([H])S1(=O)=O


 22 24  0  0  0  0  0  0  0  0999 V2000
  -85.5175   26.4458    2.1939 O   0  0  0  0  0  0  0  0  0  0  0  0
  -86.0585   27.8030    1.8680 S   0  0  0  0  0  0  0  0  0  0  0  0
  -86.4362   28.5696    3.1047 O   0  0  0  0  0  0  0  0  0  0  0  0
  -87.4472   27.6868    0.8153 N   0  0  0  0  0  0  0  0  0  0  0  0
  -87.6686   28.7293   -0.1099 C   0  0  0  0  0  0  0  0  0  0  0  0
  -88.8529   28.9646   -0.5181 N   0  0  0  0  0  0  0  0  0  0  0  0
  -86.6346   29.4901   -0.5748 O   0  0  0  0  0  0  0  0  0  0  0  0
  -85.4408   29.7609    0.0693 C   0  0  0  0  0  0  0  0  0  0  0  0
  -85.6078   31.1118    0.7815 C   0  0  0  0  0  0  0  0  0  0  0  0
  -84.2285   31.6791    0.9619 C   0  0  0  0  0  0  0  0  0  0  0  0
  -83.2485   30.6095    1.3148 C   0  0  0  0  0  0  0  0  0  0  0  0
  -83.9717   29.4400    1.9858 C   0  0  0  0  0  0  0  0  0  0  0  0
  -84.8709   28.7548    0.9777 C   0  0  0  0  0  0  0  0  0  0  0  0
  -88.0233   26.8606    0.9300 H   0  0  0  0  0  0  0  0  0  0  0  0
  -90.0109   28.2296   -0.0963 C   0  0  0  0  0  0  0  0  0  0  0  0
  -91.2101   29.1184    0.1309 C   0  0  0  0  0  0  0  0  0  0  0  0
  -92.1222   29.2376   -1.0427 C   0  0  0  0  0  0  0  0  0  0  0  0
  -91.5327   29.8966   -2.2432 C   0  0  0  0  0  0  0  0  0  0  0  0
  -91.6518   29.0347   -3.4947 C   0  0  0  0  0  0  0  0  0  0  0  0
  -91.2972   27.6045   -3.2475 C   0  0  0  0  0  0  0  0  0  0  0  0
  -90.0062   27.5181   -2.5001 C   0  0  0  0  0  0  0  0  0  0  0  0
  -90.3049   27.1171   -1.0740 C   0  0  0  0  0  0  0  0  0  0  0  0
  1  2  2  0  0  0
  2  3  2  0  0  0
  2  4  1  0  0  0
  4  5  1  0  0  0
  5  6  2  0  0  0
  6 15  1  0  0  0
 15 16  1  0  0  0
 16 17  1  0  0  0
 17 18  1  0  0  0
 18 19  1  0  0  0
 19 20  1  0  0  0
 20 21  1  0  0  0
 21 22  1  0  0  0
  5  7  1  0  0  0
  7  8  1  0  0  0
  8  9  1  0  0  0
  9 10  1  0  0  0
 10 11  1  0  0  0
 11 12  1  0  0  0
 12 13  1  0  0  0
 13  2  1  0  0  0
 22 15  1  0  0  0
 13  8  1  0  0  0
  4 14  1  0  0  0
M  END
> <minimizedAffinity>
-6.97115

> <CNNscore>
0.2447017878

> <CNNaffinity>
5.8470382690

> <CNN_VS>
1.4307807684

> <CNNaffinity_variance>
0.3720563948

$$$$
[H]N1C(=NC2([H])C([H])([H])C([H])([H])C([H])([H])C([H])([H])C([H])([H])C([H])([H])C2([H])[H])O[C@@]2([H])C([H])([H])C([H])([H])C([H])([H])C([H])([H])[C@@]2([H])S1(=O)=O


 22 24  0  0  0  0  0  0  0  0999 V2000
  -87.5761   34.1056   -2.2642 O   0  0  0  0  0  0  0  0  0  0  0  0
  -87.9694   32.8281   -1.5904 S   0  0  0  0  0  0  0  0  0  0  0  0
  -89.1709   33.0063   -0.7046 O   0  0  0  0  0  0  0  0  0  0  0  0
  -86.6478   32.1857   -0.6467 N   0  0  0  0  0  0  0  0  0  0  0  0
  -86.5431   30.7842   -0.5179 C   0  0  0  0  0  0  0  0  0  0  0  0
  -85.9648   30.2898    0.5048 N   0  0  0  0  0  0  0  0  0  0  0  0
  -87.0515   29.9492   -1.4709 O   0  0  0  0  0  0  0  0  0  0  0  0
  -88.1065   30.2039   -2.3284 C   0  0  0  0  0  0  0  0  0  0  0  0
  -89.3670   29.6079   -1.6837 C   0  0  0  0  0  0  0  0  0  0  0  0
  -90.3410   29.3477   -2.7976 C   0  0  0  0  0  0  0  0  0  0  0  0
  -90.3008   30.4407   -3.8138 C   0  0  0  0  0  0  0  0  0  0  0  0
  -89.8043   31.7357   -3.1680 C   0  0  0  0  0  0  0  0  0  0  0  0
  -88.3483   31.5824   -2.7794 C   0  0  0  0  0  0  0  0  0  0  0  0
  -86.0190   32.8693   -0.2406 H   0  0  0  0  0  0  0  0  0  0  0  0
  -85.3963   31.0720    1.5650 C   0  0  0  0  0  0  0  0  0  0  0  0
  -85.7376   30.5296    2.9321 C   0  0  0  0  0  0  0  0  0  0  0  0
  -84.7125   29.6116    3.5064 C   0  0  0  0  0  0  0  0  0  0  0  0
  -84.5118   28.3354    2.7620 C   0  0  0  0  0  0  0  0  0  0  0  0
  -83.0545   28.1137    2.3740 C   0  0  0  0  0  0  0  0  0  0  0  0
  -82.4094   29.3436    1.8232 C   0  0  0  0  0  0  0  0  0  0  0  0
  -83.2881   29.9624    0.7849 C   0  0  0  0  0  0  0  0  0  0  0  0
  -83.9063   31.2134    1.3652 C   0  0  0  0  0  0  0  0  0  0  0  0
  1  2  2  0  0  0
  2  3  2  0  0  0
  2  4  1  0  0  0
  4  5  1  0  0  0
  5  6  2  0  0  0
  6 15  1  0  0  0
 15 16  1  0  0  0
 16 17  1  0  0  0
 17 18  1  0  0  0
 18 19  1  0  0  0
 19 20  1  0  0  0
 20 21  1  0  0  0
 21 22  1  0  0  0
  5  7  1  0  0  0
  7  8  1  0  0  0
  8  9  1  0  0  0
  9 10  1  0  0  0
 10 11  1  0  0  0
 11 12  1  0  0  0
 12 13  1  0  0  0
 13  2  1  0  0  0
 22 15  1  0  0  0
 13  8  1  0  0  0
  4 14  1  0  0  0
M  END
> <minimizedAffinity>
-7.66045

> <CNNscore>
0.2081964314

> <CNNaffinity>
5.6578335762

> <CNN_VS>
1.1779407263

> <CNNaffinity_variance>
0.2032160759

$$$$
[H]N1C(=NC2([H])C([H])([H])C([H])([H])C([H])([H])C([H])([H])C([H])([H])C([H])([H])C2([H])[H])O[C@@]2([H])C([H])([H])C([H])([H])C([H])([H])C([H])([H])[C@@]2([H])S1(=O)=O


 22 24  0  0  0  0  0  0  0  0999 V2000
  -84.7209   31.2919    1.7945 O   0  0  0  0  0  0  0  0  0  0  0  0
  -85.3438   30.4673    0.7117 S   0  0  0  0  0  0  0  0  0  0  0  0
  -84.3146   29.7140   -0.0840 O   0  0  0  0  0  0  0  0  0  0  0  0
  -86.2908   31.4625   -0.3665 N   0  0  0  0  0  0  0  0  0  0  0  0
  -87.4307   30.8897   -0.9702 C   0  0  0  0  0  0  0  0  0  0  0  0
  -87.8434   31.3432   -2.0876 N   0  0  0  0  0  0  0  0  0  0  0  0
  -88.0986   29.8575   -0.3765 O   0  0  0  0  0  0  0  0  0  0  0  0
  -87.5785   28.9154    0.4925 C   0  0  0  0  0  0  0  0  0  0  0  0
  -87.2052   27.6839   -0.3464 C   0  0  0  0  0  0  0  0  0  0  0  0
  -87.2123   26.5065    0.5867 C   0  0  0  0  0  0  0  0  0  0  0  0
  -86.6467   26.8723    1.9191 C   0  0  0  0  0  0  0  0  0  0  0  0
  -85.6914   28.0584    1.7726 C   0  0  0  0  0  0  0  0  0  0  0  0
  -86.4754   29.2959    1.3873 C   0  0  0  0  0  0  0  0  0  0  0  0
  -85.9624   32.4127   -0.4969 H   0  0  0  0  0  0  0  0  0  0  0  0
  -87.2192   32.4221   -2.7987 C   0  0  0  0  0  0  0  0  0  0  0  0
  -87.1742   32.1841   -4.2890 C   0  0  0  0  0  0  0  0  0  0  0  0
  -88.3115   32.7827   -5.0451 C   0  0  0  0  0  0  0  0  0  0  0  0
  -89.6541   32.2155   -4.7308 C   0  0  0  0  0  0  0  0  0  0  0  0
  -90.6562   33.2894   -4.3236 C   0  0  0  0  0  0  0  0  0  0  0  0
  -90.0830   34.2808   -3.3639 C   0  0  0  0  0  0  0  0  0  0  0  0
  -89.3793   33.5712   -2.2529 C   0  0  0  0  0  0  0  0  0  0  0  0
  -87.8896   33.7298   -2.4518 C   0  0  0  0  0  0  0  0  0  0  0  0
  1  2  2  0  0  0
  2  3  2  0  0  0
  2  4  1  0  0  0
  4  5  1  0  0  0
  5  6  2  0  0  0
  6 15  1  0  0  0
 15 16  1  0  0  0
 16 17  1  0  0  0
 17 18  1  0  0  0
 18 19  1  0  0  0
 19 20  1  0  0  0
 20 21  1  0  0  0
 21 22  1  0  0  0
  5  7  1  0  0  0
  7  8  1  0  0  0
  8  9  1  0  0  0
  9 10  1  0  0  0
 10 11  1  0  0  0
 11 12  1  0  0  0
 12 13  1  0  0  0
 13  2  1  0  0  0
 22 15  1  0  0  0
 13  8  1  0  0  0
  4 14  1  0  0  0
M  END
> <minimizedAffinity>
-6.26301

> <CNNscore>
0.1912517548

> <CNNaffinity>
5.3153676987

> <CNN_VS>
1.0165734291

> <CNNaffinity_variance>
0.1152995676

$$$$
[H]N1C(=NC2([H])C([H])([H])C([H])([H])C([H])([H])C([H])([H])C([H])([H])C([H])([H])C2([H])[H])O[C@@]2([H])C([H])([H])C([H])([H])C([H])([H])C([H])([H])[C@@]2([H])S1(=O)=O


 22 24  0  0  0  0  0  0  0  0999 V2000
  -86.8991   31.4025   -0.7263 O   0  0  0  0  0  0  0  0  0  0  0  0
  -86.3561   30.1604   -0.0915 S   0  0  0  0  0  0  0  0  0  0  0  0
  -85.7373   29.2363   -1.1030 O   0  0  0  0  0  0  0  0  0  0  0  0
  -87.6047   29.3065    0.7813 N   0  0  0  0  0  0  0  0  0  0  0  0
  -87.2322   28.5792    1.9321 C   0  0  0  0  0  0  0  0  0  0  0  0
  -87.9331   27.5787    2.2958 N   0  0  0  0  0  0  0  0  0  0  0  0
  -86.1330   28.9300    2.6620 O   0  0  0  0  0  0  0  0  0  0  0  0
  -85.0026   29.5851    2.2080 C   0  0  0  0  0  0  0  0  0  0  0  0
  -83.9598   28.5081    1.8730 C   0  0  0  0  0  0  0  0  0  0  0  0
  -82.6131   29.1685    1.9580 C   0  0  0  0  0  0  0  0  0  0  0  0
  -82.6583   30.5557    1.4081 C   0  0  0  0  0  0  0  0  0  0  0  0
  -83.7979   30.6784    0.3948 C   0  0  0  0  0  0  0  0  0  0  0  0
  -85.1275   30.5553    1.1100 C   0  0  0  0  0  0  0  0  0  0  0  0
  -88.5428   29.3861    0.4055 H   0  0  0  0  0  0  0  0  0  0  0  0
  -89.1050   27.1225    1.6046 C   0  0  0  0  0  0  0  0  0  0  0  0
  -89.1441   25.6201    1.4601 C   0  0  0  0  0  0  0  0  0  0  0  0
  -89.9059   24.9158    2.5311 C   0  0  0  0  0  0  0  0  0  0  0  0
  -89.3316   25.0312    3.9022 C   0  0  0  0  0  0  0  0  0  0  0  0
  -90.3421   25.5646    4.9110 C   0  0  0  0  0  0  0  0  0  0  0  0
  -91.1221   26.7269    4.3885 C   0  0  0  0  0  0  0  0  0  0  0  0
  -90.1991   27.7303    3.7766 C   0  0  0  0  0  0  0  0  0  0  0  0
  -90.3463   27.6618    2.2741 C   0  0  0  0  0  0  0  0  0  0  0  0
  1  2  2  0  0  0
  2  3  2  0  0  0
  2  4  1  0  0  0
  4  5  1  0  0  0
  5  6  2  0  0  0
  6 15  1  0  0  0
 15 16  1  0  0  0
 16 17  1  0  0  0
 17 18  1  0  0  0
 18 19  1  0  0  0
 19 20  1  0  0  0
 20 21  1  0  0  0
 21 22  1  0  0  0
  5  7  1  0  0  0
  7  8  1  0  0  0
  8  9  1  0  0  0
  9 10  1  0  0  0
 10 11  1  0  0  0
 11 12  1  0  0  0
 12 13  1  0  0  0
 13  2  1  0  0  0
 22 15  1  0  0  0
 13  8  1  0  0  0
  4 14  1  0  0  0
M  END
> <minimizedAffinity>
-7.70460

> <CNNscore>
0.1879234463

> <CNNaffinity>
5.7850046158

> <CNN_VS>
1.0871380568

> <CNNaffinity_variance>
0.1233680025

$$$$
[H]N1C(=NC2([H])C([H])([H])C([H])([H])C([H])([H])C([H])([H])C([H])([H])C([H])([H])C2([H])[H])O[C@@]2([H])C([H])([H])C([H])([H])C([H])([H])C([H])([H])[C@@]2([H])S1(=O)=O


 22 24  0  0  0  0  0  0  0  0999 V2000
  -88.2662   32.8333   -0.7714 O   0  0  0  0  0  0  0  0  0  0  0  0
  -87.3843   31.6257   -0.7038 S   0  0  0  0  0  0  0  0  0  0  0  0
  -86.8980   31.2077   -2.0635 O   0  0  0  0  0  0  0  0  0  0  0  0
  -88.2144   30.2859    0.0485 N   0  0  0  0  0  0  0  0  0  0  0  0
  -87.4492   29.3662    0.7971 C   0  0  0  0  0  0  0  0  0  0  0  0
  -87.8615   28.1672    0.9280 N   0  0  0  0  0  0  0  0  0  0  0  0
  -86.2743   29.7400    1.3835 O   0  0  0  0  0  0  0  0  0  0  0  0
  -85.4185   30.7462    0.9732 C   0  0  0  0  0  0  0  0  0  0  0  0
  -84.3320   30.0906    0.1076 C   0  0  0  0  0  0  0  0  0  0  0  0
  -83.1347   30.9967    0.1563 C   0  0  0  0  0  0  0  0  0  0  0  0
  -83.5443   32.4320    0.1228 C   0  0  0  0  0  0  0  0  0  0  0  0
  -84.9071   32.5699   -0.5587 C   0  0  0  0  0  0  0  0  0  0  0  0
  -85.9741   31.9345    0.3086 C   0  0  0  0  0  0  0  0  0  0  0  0
  -89.2169   30.2470   -0.0966 H   0  0  0  0  0  0  0  0  0  0  0  0
  -89.0787   27.6673    0.3554 C   0  0  0  0  0  0  0  0  0  0  0  0
  -89.0350   26.1780    0.1112 C   0  0  0  0  0  0  0  0  0  0  0  0
  -89.6049   25.3537    1.2153 C   0  0  0  0  0  0  0  0  0  0  0  0
  -88.8694   25.4274    2.5102 C   0  0  0  0  0  0  0  0  0  0  0  0
  -89.7765   25.8199    3.6706 C   0  0  0  0  0  0  0  0  0  0  0  0
  -90.6930   26.9500    3.3312 C   0  0  0  0  0  0  0  0  0  0  0  0
  -89.9251   28.0559    2.6828 C   0  0  0  0  0  0  0  0  0  0  0  0
  -90.2578   28.0692    1.2088 C   0  0  0  0  0  0  0  0  0  0  0  0
  1  2  2  0  0  0
  2  3  2  0  0  0
  2  4  1  0  0  0
  4  5  1  0  0  0
  5  6  2  0  0  0
  6 15  1  0  0  0
 15 16  1  0  0  0
 16 17  1  0  0  0
 17 18  1  0  0  0
 18 19  1  0  0  0
 19 20  1  0  0  0
 20 21  1  0  0  0
 21 22  1  0  0  0
  5  7  1  0  0  0
  7  8  1  0  0  0
  8  9  1  0  0  0
  9 10  1  0  0  0
 10 11  1  0  0  0
 11 12  1  0  0  0
 12 13  1  0  0  0
 13  2  1  0  0  0
 22 15  1  0  0  0
 13  8  1  0  0  0
  4 14  1  0  0  0
M  END
> <minimizedAffinity>
-6.34726

> <CNNscore>
0.1867530644

> <CNNaffinity>
5.9075660706

> <CNN_VS>
1.1032561064

> <CNNaffinity_variance>
0.2210667878

$$$$
[H]N1C(=NC2([H])C([H])([H])C([H])([H])C([H])([H])C([H])([H])C([H])([H])C([H])([H])C2([H])[H])O[C@@]2([H])C([H])([H])C([H])([H])C([H])([H])C([H])([H])[C@@]2([H])S1(=O)=O


 22 24  0  0  0  0  0  0  0  0999 V2000
  -84.9937   38.4281   -4.8437 O   0  0  0  0  0  0  0  0  0  0  0  0
  -86.3698   37.8959   -5.0963 S   0  0  0  0  0  0  0  0  0  0  0  0
  -87.4260   38.7242   -4.4195 O   0  0  0  0  0  0  0  0  0  0  0  0
  -86.5075   36.2386   -4.5630 N   0  0  0  0  0  0  0  0  0  0  0  0
  -87.3818   35.3842   -5.2683 C   0  0  0  0  0  0  0  0  0  0  0  0
  -87.8993   34.3843   -4.6706 N   0  0  0  0  0  0  0  0  0  0  0  0
  -87.6826   35.6114   -6.5805 O   0  0  0  0  0  0  0  0  0  0  0  0
  -87.6766   36.8267   -7.2409 C   0  0  0  0  0  0  0  0  0  0  0  0
  -89.1167   37.3609   -7.2177 C   0  0  0  0  0  0  0  0  0  0  0  0
  -89.2452   38.3090   -8.3759 C   0  0  0  0  0  0  0  0  0  0  0  0
  -88.0042   39.1213   -8.5468 C   0  0  0  0  0  0  0  0  0  0  0  0
  -87.2621   39.2270   -7.2131 C   0  0  0  0  0  0  0  0  0  0  0  0
  -86.7237   37.8659   -6.8234 C   0  0  0  0  0  0  0  0  0  0  0  0
  -85.9388   35.9805   -3.7645 H   0  0  0  0  0  0  0  0  0  0  0  0
  -87.6536   34.0522   -3.2963 C   0  0  0  0  0  0  0  0  0  0  0  0
  -88.8996   34.1388   -2.4479 C   0  0  0  0  0  0  0  0  0  0  0  0
  -89.6273   32.8475   -2.2853 C   0  0  0  0  0  0  0  0  0  0  0  0
  -90.2033   32.2788   -3.5374 C   0  0  0  0  0  0  0  0  0  0  0  0
  -89.7450   30.8469   -3.7881 C   0  0  0  0  0  0  0  0  0  0  0  0
  -88.2815   30.6588   -3.5531 C   0  0  0  0  0  0  0  0  0  0  0  0
  -87.5088   31.7357   -4.2433 C   0  0  0  0  0  0  0  0  0  0  0  0
  -86.9924   32.6982   -3.1990 C   0  0  0  0  0  0  0  0  0  0  0  0
  1  2  2  0  0  0
  2  3  2  0  0  0
  2  4  1  0  0  0
  4  5  1  0  0  0
  5  6  2  0  0  0
  6 15  1  0  0  0
 15 16  1  0  0  0
 16 17  1  0  0  0
 17 18  1  0  0  0
 18 19  1  0  0  0
 19 20  1  0  0  0
 20 21  1  0  0  0
 21 22  1  0  0  0
  5  7  1  0  0  0
  7  8  1  0  0  0
  8  9  1  0  0  0
  9 10  1  0  0  0
 10 11  1  0  0  0
 11 12  1  0  0  0
 12 13  1  0  0  0
 13  2  1  0  0  0
 22 15  1  0  0  0
 13  8  1  0  0  0
  4 14  1  0  0  0
M  END
> <minimizedAffinity>
-6.02636

> <CNNscore>
0.1681779325

> <CNNaffinity>
4.8024587631

> <CNN_VS>
0.8076676130

> <CNNaffinity_variance>
0.1912565529

$$$$
[H]C(=NN([H])C(=S)N([H])C([H])([H])c1c([H])c([H])c(OC([H])(C([H])([H])[H])C([H])([H])[H])c([H])c1[H])c1c([H])c([H])c([N+](=O)[O-])c([H])c1[H]


 28 29  0  0  0  0  0  0  0  0999 V2000
  -87.1755   33.3359   -3.6592 C   0  0  0  0  0  0  0  0  0  0  0  0
  -87.6475   34.8779   -3.8716 S   0  0  0  0  0  0  0  0  0  0  0  0
  -87.7961   32.3129   -4.4009 N   0  0  0  0  0  0  0  0  0  0  0  0
  -87.2714   31.7960   -5.1310 H   0  0  0  0  0  0  0  0  0  0  0  0
  -89.1764   31.9688   -4.1534 C   0  0  0  0  0  0  0  0  0  0  0  0
  -89.6559   29.9011   -0.4235 C   0  0  0  0  0  0  0  0  0  0  0  0
  -89.4307   29.2169   -1.6188 C   0  0  0  0  0  0  0  0  0  0  0  0
  -89.2794   29.8964   -2.8050 C   0  0  0  0  0  0  0  0  0  0  0  0
  -89.3442   31.2714   -2.8570 C   0  0  0  0  0  0  0  0  0  0  0  0
  -89.5667   31.9120   -1.6636 C   0  0  0  0  0  0  0  0  0  0  0  0
  -89.7242   31.2563   -0.4463 C   0  0  0  0  0  0  0  0  0  0  0  0
  -89.8002   29.1785    0.7330 O   0  0  0  0  0  0  0  0  0  0  0  0
  -91.1729   28.8760    2.7042 C   0  0  0  0  0  0  0  0  0  0  0  0
  -90.9597   28.6018    1.2161 C   0  0  0  0  0  0  0  0  0  0  0  0
  -90.8750   27.0828    1.0585 C   0  0  0  0  0  0  0  0  0  0  0  0
  -86.1423   33.0142   -2.7315 N   0  0  0  0  0  0  0  0  0  0  0  0
  -85.4874   32.1969   -2.9050 H   0  0  0  0  0  0  0  0  0  0  0  0
  -85.9518   33.7286   -1.5949 N   0  0  0  0  0  0  0  0  0  0  0  0
  -85.6100   33.4996   -0.4393 C   0  0  0  0  0  0  0  0  0  0  0  0
  -85.2573   32.2303    0.1496 C   0  0  0  0  0  0  0  0  0  0  0  0
  -86.0592   31.1128    0.1668 C   0  0  0  0  0  0  0  0  0  0  0  0
  -85.6669   29.9102    0.7508 C   0  0  0  0  0  0  0  0  0  0  0  0
  -84.4359   29.7788    1.3500 C   0  0  0  0  0  0  0  0  0  0  0  0
  -83.6116   30.8795    1.3487 C   0  0  0  0  0  0  0  0  0  0  0  0
  -84.0082   32.0558    0.7715 C   0  0  0  0  0  0  0  0  0  0  0  0
  -84.0419   28.5412    1.9466 N   0  0  0  0  0  0  0  0  0  0  0  0
  -84.8777   27.6234    2.0466 O   0  0  0  0  0  0  0  0  0  0  0  0
  -82.7459   28.4339    2.3816 O   0  0  0  0  0  0  0  0  0  0  0  0
 13 14  1  0  0  0
 14 15  1  0  0  0
 14 12  1  0  0  0
 12  6  1  0  0  0
  6  7  2  0  0  0
  7  8  1  0  0  0
  8  9  2  0  0  0
  9  5  1  0  0  0
  5  3  1  0  0  0
  3  1  1  0  0  0
  1  2  2  0  0  0
  1 16  1  0  0  0
 16 18  1  0  0  0
 18 19  2  0  0  0
 19 20  1  0  0  0
 20 21  2  0  0  0
 21 22  1  0  0  0
 22 23  2  0  0  0
 23 26  1  0  0  0
 26 27  2  0  0  0
 26 28  1  0  0  0
 23 24  1  0  0  0
 24 25  2  0  0  0
  9 10  1  0  0  0
 10 11  2  0  0  0
 11  6  1  0  0  0
 25 20  1  0  0  0
  3  4  1  0  0  0
 16 17  1  0  0  0
M  CHG 1  26   1
M  CHG 1  28  -1
M  END
> <minimizedAffinity>
-6.91513

> <CNNscore>
0.7999587655

> <CNNaffinity>
6.5018577576

> <CNN_VS>
5.2012181282

> <CNNaffinity_variance>
0.1351615489

$$$$
[H]C(=NN([H])C(=S)N([H])C([H])([H])c1c([H])c([H])c(OC([H])(C([H])([H])[H])C([H])([H])[H])c([H])c1[H])c1c([H])c([H])c([N+](=O)[O-])c([H])c1[H]


 28 29  0  0  0  0  0  0  0  0999 V2000
  -86.9609   27.2253    1.5669 C   0  0  0  0  0  0  0  0  0  0  0  0
  -88.0590   26.3734    2.4120 S   0  0  0  0  0  0  0  0  0  0  0  0
  -87.3676   28.3756    0.8646 N   0  0  0  0  0  0  0  0  0  0  0  0
  -88.0819   29.0134    1.2625 H   0  0  0  0  0  0  0  0  0  0  0  0
  -86.7930   28.6832   -0.4239 C   0  0  0  0  0  0  0  0  0  0  0  0
  -88.6475   32.0892   -2.2617 C   0  0  0  0  0  0  0  0  0  0  0  0
  -88.3045   30.9539   -2.9971 C   0  0  0  0  0  0  0  0  0  0  0  0
  -87.7106   29.8714   -2.3911 C   0  0  0  0  0  0  0  0  0  0  0  0
  -87.4336   29.8677   -1.0418 C   0  0  0  0  0  0  0  0  0  0  0  0
  -87.7841   30.9999   -0.3493 C   0  0  0  0  0  0  0  0  0  0  0  0
  -88.3857   32.1121   -0.9302 C   0  0  0  0  0  0  0  0  0  0  0  0
  -89.2377   33.1426   -2.9116 O   0  0  0  0  0  0  0  0  0  0  0  0
  -87.3113   34.4841   -3.5039 C   0  0  0  0  0  0  0  0  0  0  0  0
  -88.6792   33.9302   -3.9005 C   0  0  0  0  0  0  0  0  0  0  0  0
  -89.5822   35.1374   -4.1586 C   0  0  0  0  0  0  0  0  0  0  0  0
  -85.5956   26.8175    1.5325 N   0  0  0  0  0  0  0  0  0  0  0  0
  -85.2400   26.1626    0.7764 H   0  0  0  0  0  0  0  0  0  0  0  0
  -84.6976   27.2410    2.4559 N   0  0  0  0  0  0  0  0  0  0  0  0
  -84.0937   28.2785    2.7084 C   0  0  0  0  0  0  0  0  0  0  0  0
  -84.1587   29.5389    2.0090 C   0  0  0  0  0  0  0  0  0  0  0  0
  -85.0382   30.5586    2.2904 C   0  0  0  0  0  0  0  0  0  0  0  0
  -85.0568   31.7577    1.5810 C   0  0  0  0  0  0  0  0  0  0  0  0
  -84.1808   31.9849    0.5452 C   0  0  0  0  0  0  0  0  0  0  0  0
  -83.2893   30.9834    0.2402 C   0  0  0  0  0  0  0  0  0  0  0  0
  -83.2805   29.8095    0.9446 C   0  0  0  0  0  0  0  0  0  0  0  0
  -84.2073   33.2180   -0.1770 N   0  0  0  0  0  0  0  0  0  0  0  0
  -83.1328   33.7239   -0.5519 O   0  0  0  0  0  0  0  0  0  0  0  0
  -85.4334   33.7820   -0.4192 O   0  0  0  0  0  0  0  0  0  0  0  0
 13 14  1  0  0  0
 14 15  1  0  0  0
 14 12  1  0  0  0
 12  6  1  0  0  0
  6  7  2  0  0  0
  7  8  1  0  0  0
  8  9  2  0  0  0
  9  5  1  0  0  0
  5  3  1  0  0  0
  3  1  1  0  0  0
  1  2  2  0  0  0
  1 16  1  0  0  0
 16 18  1  0  0  0
 18 19  2  0  0  0
 19 20  1  0  0  0
 20 21  2  0  0  0
 21 22  1  0  0  0
 22 23  2  0  0  0
 23 26  1  0  0  0
 26 27  2  0  0  0
 26 28  1  0  0  0
 23 24  1  0  0  0
 24 25  2  0  0  0
  9 10  1  0  0  0
 10 11  2  0  0  0
 11  6  1  0  0  0
 25 20  1  0  0  0
  3  4  1  0  0  0
 16 17  1  0  0  0
M  CHG 1  26   1
M  CHG 1  28  -1
M  END
> <minimizedAffinity>
-7.46514

> <CNNscore>
0.6433213949

> <CNNaffinity>
6.5531373024

> <CNN_VS>
4.2157735825

> <CNNaffinity_variance>
0.0608726069

$$$$
[H]C(=NN([H])C(=S)N([H])C([H])([H])c1c([H])c([H])c(OC([H])(C([H])([H])[H])C([H])([H])[H])c([H])c1[H])c1c([H])c([H])c([N+](=O)[O-])c([H])c1[H]


 28 29  0  0  0  0  0  0  0  0999 V2000
  -87.2513   27.0558    1.2912 C   0  0  0  0  0  0  0  0  0  0  0  0
  -88.2333   26.4988    2.4622 S   0  0  0  0  0  0  0  0  0  0  0  0
  -87.8058   27.7109    0.1754 N   0  0  0  0  0  0  0  0  0  0  0  0
  -87.4315   27.5422   -0.7770 H   0  0  0  0  0  0  0  0  0  0  0  0
  -88.9071   28.6294    0.3432 C   0  0  0  0  0  0  0  0  0  0  0  0
  -88.4430   32.0704   -2.1790 C   0  0  0  0  0  0  0  0  0  0  0  0
  -87.7506   30.8834   -2.4216 C   0  0  0  0  0  0  0  0  0  0  0  0
  -87.9119   29.7904   -1.6024 C   0  0  0  0  0  0  0  0  0  0  0  0
  -88.7591   29.8267   -0.5169 C   0  0  0  0  0  0  0  0  0  0  0  0
  -89.4239   31.0093   -0.3079 C   0  0  0  0  0  0  0  0  0  0  0  0
  -89.2845   32.1335   -1.1161 C   0  0  0  0  0  0  0  0  0  0  0  0
  -88.2484   33.1322   -3.0247 O   0  0  0  0  0  0  0  0  0  0  0  0
  -89.8968   34.7214   -3.8113 C   0  0  0  0  0  0  0  0  0  0  0  0
  -88.7302   34.4186   -2.8718 C   0  0  0  0  0  0  0  0  0  0  0  0
  -87.6239   35.4188   -3.2108 C   0  0  0  0  0  0  0  0  0  0  0  0
  -85.8392   26.8862    1.3862 N   0  0  0  0  0  0  0  0  0  0  0  0
  -85.3045   26.3367    0.6520 H   0  0  0  0  0  0  0  0  0  0  0  0
  -85.1216   27.4115    2.4098 N   0  0  0  0  0  0  0  0  0  0  0  0
  -84.5383   28.4641    2.6475 C   0  0  0  0  0  0  0  0  0  0  0  0
  -84.4176   29.6258    1.8001 C   0  0  0  0  0  0  0  0  0  0  0  0
  -83.2357   30.1339    1.3130 C   0  0  0  0  0  0  0  0  0  0  0  0
  -83.1775   31.2614    0.4964 C   0  0  0  0  0  0  0  0  0  0  0  0
  -84.3199   31.9344    0.1307 C   0  0  0  0  0  0  0  0  0  0  0  0
  -85.5172   31.4501    0.6025 C   0  0  0  0  0  0  0  0  0  0  0  0
  -85.5617   30.3411    1.4041 C   0  0  0  0  0  0  0  0  0  0  0  0
  -84.2505   33.0902   -0.7073 N   0  0  0  0  0  0  0  0  0  0  0  0
  -85.0855   33.2273   -1.6211 O   0  0  0  0  0  0  0  0  0  0  0  0
  -83.2528   33.9958   -0.4530 O   0  0  0  0  0  0  0  0  0  0  0  0
 13 14  1  0  0  0
 14 15  1  0  0  0
 14 12  1  0  0  0
 12  6  1  0  0  0
  6  7  2  0  0  0
  7  8  1  0  0  0
  8  9  2  0  0  0
  9  5  1  0  0  0
  5  3  1  0  0  0
  3  1  1  0  0  0
  1  2  2  0  0  0
  1 16  1  0  0  0
 16 18  1  0  0  0
 18 19  2  0  0  0
 19 20  1  0  0  0
 20 21  2  0  0  0
 21 22  1  0  0  0
 22 23  2  0  0  0
 23 26  1  0  0  0
 26 27  2  0  0  0
 26 28  1  0  0  0
 23 24  1  0  0  0
 24 25  2  0  0  0
  9 10  1  0  0  0
 10 11  2  0  0  0
 11  6  1  0  0  0
 25 20  1  0  0  0
  3  4  1  0  0  0
 16 17  1  0  0  0
M  CHG 1  26   1
M  CHG 1  28  -1
M  END
> <minimizedAffinity>
-7.54541

> <CNNscore>
0.6408573985

> <CNNaffinity>
6.6087508202

> <CNN_VS>
4.2352666855

> <CNNaffinity_variance>
0.0206096787

$$$$
[H]C(=NN([H])C(=S)N([H])C([H])([H])c1c([H])c([H])c(OC([H])(C([H])([H])[H])C([H])([H])[H])c([H])c1[H])c1c([H])c([H])c([N+](=O)[O-])c([H])c1[H]


 28 29  0  0  0  0  0  0  0  0999 V2000
  -87.2451   32.9378   -3.3024 C   0  0  0  0  0  0  0  0  0  0  0  0
  -87.4996   34.3947   -3.9794 S   0  0  0  0  0  0  0  0  0  0  0  0
  -87.5763   31.7729   -4.0201 N   0  0  0  0  0  0  0  0  0  0  0  0
  -86.9684   31.4348   -4.7893 H   0  0  0  0  0  0  0  0  0  0  0  0
  -88.7711   31.0311   -3.6931 C   0  0  0  0  0  0  0  0  0  0  0  0
  -88.1623   28.5135   -0.2712 C   0  0  0  0  0  0  0  0  0  0  0  0
  -87.4036   28.3690   -1.4335 C   0  0  0  0  0  0  0  0  0  0  0  0
  -87.6127   29.1851   -2.5207 C   0  0  0  0  0  0  0  0  0  0  0  0
  -88.5745   30.1711   -2.5027 C   0  0  0  0  0  0  0  0  0  0  0  0
  -89.3019   30.2853   -1.3442 C   0  0  0  0  0  0  0  0  0  0  0  0
  -89.1167   29.4772   -0.2265 C   0  0  0  0  0  0  0  0  0  0  0  0
  -87.9158   27.6755    0.7858 O   0  0  0  0  0  0  0  0  0  0  0  0
  -88.3126   26.2997    2.7380 C   0  0  0  0  0  0  0  0  0  0  0  0
  -88.8055   26.8014    1.3814 C   0  0  0  0  0  0  0  0  0  0  0  0
  -88.9762   25.5675    0.4939 C   0  0  0  0  0  0  0  0  0  0  0  0
  -86.6916   32.8324   -1.9932 N   0  0  0  0  0  0  0  0  0  0  0  0
  -87.1288   32.1957   -1.2649 H   0  0  0  0  0  0  0  0  0  0  0  0
  -85.5934   33.5352   -1.6207 N   0  0  0  0  0  0  0  0  0  0  0  0
  -84.6257   33.3628   -0.8869 C   0  0  0  0  0  0  0  0  0  0  0  0
  -84.3121   32.2052   -0.0845 C   0  0  0  0  0  0  0  0  0  0  0  0
  -83.0455   31.8104    0.2788 C   0  0  0  0  0  0  0  0  0  0  0  0
  -82.8001   30.6810    1.0571 C   0  0  0  0  0  0  0  0  0  0  0  0
  -83.8312   29.8907    1.5086 C   0  0  0  0  0  0  0  0  0  0  0  0
  -85.1095   30.2601    1.1613 C   0  0  0  0  0  0  0  0  0  0  0  0
  -85.3380   31.3721    0.3962 C   0  0  0  0  0  0  0  0  0  0  0  0
  -83.5700   28.7340    2.3064 N   0  0  0  0  0  0  0  0  0  0  0  0
  -82.4054   28.2988    2.3800 O   0  0  0  0  0  0  0  0  0  0  0  0
  -84.6334   28.1608    2.9551 O   0  0  0  0  0  0  0  0  0  0  0  0
 13 14  1  0  0  0
 14 15  1  0  0  0
 14 12  1  0  0  0
 12  6  1  0  0  0
  6  7  2  0  0  0
  7  8  1  0  0  0
  8  9  2  0  0  0
  9  5  1  0  0  0
  5  3  1  0  0  0
  3  1  1  0  0  0
  1  2  2  0  0  0
  1 16  1  0  0  0
 16 18  1  0  0  0
 18 19  2  0  0  0
 19 20  1  0  0  0
 20 21  2  0  0  0
 21 22  1  0  0  0
 22 23  2  0  0  0
 23 26  1  0  0  0
 26 27  2  0  0  0
 26 28  1  0  0  0
 23 24  1  0  0  0
 24 25  2  0  0  0
  9 10  1  0  0  0
 10 11  2  0  0  0
 11  6  1  0  0  0
 25 20  1  0  0  0
  3  4  1  0  0  0
 16 17  1  0  0  0
M  CHG 1  26   1
M  CHG 1  28  -1
M  END
> <minimizedAffinity>
-7.65450

> <CNNscore>
0.4978097975

> <CNNaffinity>
6.4419236183

> <CNN_VS>
3.2068526745

> <CNNaffinity_variance>
0.4674213827

$$$$
[H]C(=NN([H])C(=S)N([H])C([H])([H])c1c([H])c([H])c(OC([H])(C([H])([H])[H])C([H])([H])[H])c([H])c1[H])c1c([H])c([H])c([N+](=O)[O-])c([H])c1[H]


 28 29  0  0  0  0  0  0  0  0999 V2000
  -86.7415   33.3346   -1.2464 C   0  0  0  0  0  0  0  0  0  0  0  0
  -86.6594   33.8467   -2.7881 S   0  0  0  0  0  0  0  0  0  0  0  0
  -87.8443   32.5652   -0.8297 N   0  0  0  0  0  0  0  0  0  0  0  0
  -88.2071   32.6419    0.1389 H   0  0  0  0  0  0  0  0  0  0  0  0
  -88.4869   31.6561   -1.7490 C   0  0  0  0  0  0  0  0  0  0  0  0
  -88.0490   27.5619   -0.5391 C   0  0  0  0  0  0  0  0  0  0  0  0
  -87.5138   28.0346   -1.7381 C   0  0  0  0  0  0  0  0  0  0  0  0
  -87.6640   29.3502   -2.1097 C   0  0  0  0  0  0  0  0  0  0  0  0
  -88.3453   30.2463   -1.3157 C   0  0  0  0  0  0  0  0  0  0  0  0
  -88.8583   29.7478   -0.1441 C   0  0  0  0  0  0  0  0  0  0  0  0
  -88.7250   28.4236    0.2623 C   0  0  0  0  0  0  0  0  0  0  0  0
  -87.8723   26.2418   -0.2129 O   0  0  0  0  0  0  0  0  0  0  0  0
  -89.8361   25.4087   -1.3578 C   0  0  0  0  0  0  0  0  0  0  0  0
  -88.8314   25.2466   -0.2179 C   0  0  0  0  0  0  0  0  0  0  0  0
  -89.6324   25.3068    1.0836 C   0  0  0  0  0  0  0  0  0  0  0  0
  -85.7093   33.6578   -0.3181 N   0  0  0  0  0  0  0  0  0  0  0  0
  -85.9370   34.0988    0.6204 H   0  0  0  0  0  0  0  0  0  0  0  0
  -84.4019   33.4215   -0.5892 N   0  0  0  0  0  0  0  0  0  0  0  0
  -83.5933   32.5216   -0.3864 C   0  0  0  0  0  0  0  0  0  0  0  0
  -83.8092   31.2676    0.2940 C   0  0  0  0  0  0  0  0  0  0  0  0
  -84.9477   30.5008    0.2033 C   0  0  0  0  0  0  0  0  0  0  0  0
  -85.1027   29.2949    0.8839 C   0  0  0  0  0  0  0  0  0  0  0  0
  -84.1068   28.8030    1.6950 C   0  0  0  0  0  0  0  0  0  0  0  0
  -82.9562   29.5477    1.8058 C   0  0  0  0  0  0  0  0  0  0  0  0
  -82.8155   30.7311    1.1320 C   0  0  0  0  0  0  0  0  0  0  0  0
  -84.2747   27.5650    2.3894 N   0  0  0  0  0  0  0  0  0  0  0  0
  -83.3548   27.1497    3.1189 O   0  0  0  0  0  0  0  0  0  0  0  0
  -85.4576   26.8952    2.2094 O   0  0  0  0  0  0  0  0  0  0  0  0
 13 14  1  0  0  0
 14 15  1  0  0  0
 14 12  1  0  0  0
 12  6  1  0  0  0
  6  7  2  0  0  0
  7  8  1  0  0  0
  8  9  2  0  0  0
  9  5  1  0  0  0
  5  3  1  0  0  0
  3  1  1  0  0  0
  1  2  2  0  0  0
  1 16  1  0  0  0
 16 18  1  0  0  0
 18 19  2  0  0  0
 19 20  1  0  0  0
 20 21  2  0  0  0
 21 22  1  0  0  0
 22 23  2  0  0  0
 23 26  1  0  0  0
 26 27  2  0  0  0
 26 28  1  0  0  0
 23 24  1  0  0  0
 24 25  2  0  0  0
  9 10  1  0  0  0
 10 11  2  0  0  0
 11  6  1  0  0  0
 25 20  1  0  0  0
  3  4  1  0  0  0
 16 17  1  0  0  0
M  CHG 1  26   1
M  CHG 1  28  -1
M  END
> <minimizedAffinity>
-7.96225

> <CNNscore>
0.4863177836

> <CNNaffinity>
6.5988130569

> <CNN_VS>
3.2091200352

> <CNNaffinity_variance>
0.8018531799

$$$$
[H]C(=NN([H])C(=S)N([H])C([H])([H])c1c([H])c([H])c(OC([H])(C([H])([H])[H])C([H])([H])[H])c([H])c1[H])c1c([H])c([H])c([N+](=O)[O-])c([H])c1[H]


 28 29  0  0  0  0  0  0  0  0999 V2000
  -87.5922   32.9327   -4.1696 C   0  0  0  0  0  0  0  0  0  0  0  0
  -88.7487   33.7621   -4.9573 S   0  0  0  0  0  0  0  0  0  0  0  0
  -86.5188   33.6287   -3.5821 N   0  0  0  0  0  0  0  0  0  0  0  0
  -85.6601   33.8338   -4.1263 H   0  0  0  0  0  0  0  0  0  0  0  0
  -86.6000   34.0676   -2.2089 C   0  0  0  0  0  0  0  0  0  0  0  0
  -84.4806   31.4314    0.4324 C   0  0  0  0  0  0  0  0  0  0  0  0
  -83.8686   32.5492   -0.1362 C   0  0  0  0  0  0  0  0  0  0  0  0
  -84.5636   33.3832   -0.9807 C   0  0  0  0  0  0  0  0  0  0  0  0
  -85.8837   33.1470   -1.2952 C   0  0  0  0  0  0  0  0  0  0  0  0
  -86.4541   32.0395   -0.7187 C   0  0  0  0  0  0  0  0  0  0  0  0
  -85.7808   31.1753    0.1394 C   0  0  0  0  0  0  0  0  0  0  0  0
  -83.7455   30.6306    1.2682 O   0  0  0  0  0  0  0  0  0  0  0  0
  -85.0209   29.5655    3.0289 C   0  0  0  0  0  0  0  0  0  0  0  0
  -84.1237   29.4128    1.8014 C   0  0  0  0  0  0  0  0  0  0  0  0
  -82.8795   28.6510    2.2605 C   0  0  0  0  0  0  0  0  0  0  0  0
  -87.6574   31.5123   -4.0704 N   0  0  0  0  0  0  0  0  0  0  0  0
  -86.7741   30.9295   -3.9859 H   0  0  0  0  0  0  0  0  0  0  0  0
  -88.8386   30.8466   -4.0815 N   0  0  0  0  0  0  0  0  0  0  0  0
  -89.4004   30.0069   -3.3858 C   0  0  0  0  0  0  0  0  0  0  0  0
  -88.9157   29.3826   -2.1786 C   0  0  0  0  0  0  0  0  0  0  0  0
  -89.3590   29.6626   -0.9068 C   0  0  0  0  0  0  0  0  0  0  0  0
  -88.8544   29.0276    0.2262 C   0  0  0  0  0  0  0  0  0  0  0  0
  -87.8700   28.0722    0.1269 C   0  0  0  0  0  0  0  0  0  0  0  0
  -87.4063   27.7708   -1.1321 C   0  0  0  0  0  0  0  0  0  0  0  0
  -87.9101   28.4014   -2.2379 C   0  0  0  0  0  0  0  0  0  0  0  0
  -87.3583   27.4261    1.2946 N   0  0  0  0  0  0  0  0  0  0  0  0
  -86.3512   26.7004    1.1936 O   0  0  0  0  0  0  0  0  0  0  0  0
  -88.0161   27.6457    2.4775 O   0  0  0  0  0  0  0  0  0  0  0  0
 13 14  1  0  0  0
 14 15  1  0  0  0
 14 12  1  0  0  0
 12  6  1  0  0  0
  6  7  2  0  0  0
  7  8  1  0  0  0
  8  9  2  0  0  0
  9  5  1  0  0  0
  5  3  1  0  0  0
  3  1  1  0  0  0
  1  2  2  0  0  0
  1 16  1  0  0  0
 16 18  1  0  0  0
 18 19  2  0  0  0
 19 20  1  0  0  0
 20 21  2  0  0  0
 21 22  1  0  0  0
 22 23  2  0  0  0
 23 26  1  0  0  0
 26 27  2  0  0  0
 26 28  1  0  0  0
 23 24  1  0  0  0
 24 25  2  0  0  0
  9 10  1  0  0  0
 10 11  2  0  0  0
 11  6  1  0  0  0
 25 20  1  0  0  0
  3  4  1  0  0  0
 16 17  1  0  0  0
M  CHG 1  26   1
M  CHG 1  28  -1
M  END
> <minimizedAffinity>
-7.65724

> <CNNscore>
0.4839231670

> <CNNaffinity>
6.0926828384

> <CNN_VS>
2.9483904839

> <CNNaffinity_variance>
0.3244246542

$$$$
[H]C(=NN([H])C(=S)N([H])C([H])([H])c1c([H])c([H])c(OC([H])(C([H])([H])[H])C([H])([H])[H])c([H])c1[H])c1c([H])c([H])c([N+](=O)[O-])c([H])c1[H]


 28 29  0  0  0  0  0  0  0  0999 V2000
  -86.9290   33.2700   -2.7697 C   0  0  0  0  0  0  0  0  0  0  0  0
  -87.4887   34.7888   -2.9296 S   0  0  0  0  0  0  0  0  0  0  0  0
  -86.9785   32.3939   -3.8705 N   0  0  0  0  0  0  0  0  0  0  0  0
  -86.1131   32.1352   -4.3801 H   0  0  0  0  0  0  0  0  0  0  0  0
  -88.2398   31.8419   -4.3056 C   0  0  0  0  0  0  0  0  0  0  0  0
  -89.4135   28.4345   -1.9754 C   0  0  0  0  0  0  0  0  0  0  0  0
  -90.3191   29.4419   -2.3109 C   0  0  0  0  0  0  0  0  0  0  0  0
  -89.9250   30.5269   -3.0586 C   0  0  0  0  0  0  0  0  0  0  0  0
  -88.6276   30.6589   -3.5022 C   0  0  0  0  0  0  0  0  0  0  0  0
  -87.7639   29.6504   -3.1543 C   0  0  0  0  0  0  0  0  0  0  0  0
  -88.1287   28.5395   -2.3997 C   0  0  0  0  0  0  0  0  0  0  0  0
  -89.8549   27.3729   -1.2281 O   0  0  0  0  0  0  0  0  0  0  0  0
  -89.7117   24.9771   -1.5459 C   0  0  0  0  0  0  0  0  0  0  0  0
  -90.5334   26.2581   -1.6834 C   0  0  0  0  0  0  0  0  0  0  0  0
  -90.8404   26.4236   -3.1726 C   0  0  0  0  0  0  0  0  0  0  0  0
  -86.3909   32.8215   -1.5284 N   0  0  0  0  0  0  0  0  0  0  0  0
  -86.9430   32.1707   -0.8970 H   0  0  0  0  0  0  0  0  0  0  0  0
  -85.1625   33.2036   -1.0999 N   0  0  0  0  0  0  0  0  0  0  0  0
  -84.2756   32.7379   -0.3919 C   0  0  0  0  0  0  0  0  0  0  0  0
  -84.2606   31.4704    0.2976 C   0  0  0  0  0  0  0  0  0  0  0  0
  -83.2364   31.0113    1.0930 C   0  0  0  0  0  0  0  0  0  0  0  0
  -83.2750   29.7761    1.7366 C   0  0  0  0  0  0  0  0  0  0  0  0
  -84.3588   28.9395    1.6057 C   0  0  0  0  0  0  0  0  0  0  0  0
  -85.3988   29.3712    0.8164 C   0  0  0  0  0  0  0  0  0  0  0  0
  -85.3494   30.5871    0.1891 C   0  0  0  0  0  0  0  0  0  0  0  0
  -84.3896   27.6742    2.2696 N   0  0  0  0  0  0  0  0  0  0  0  0
  -83.3611   27.2634    2.8392 O   0  0  0  0  0  0  0  0  0  0  0  0
  -85.5683   26.9741    2.2406 O   0  0  0  0  0  0  0  0  0  0  0  0
 13 14  1  0  0  0
 14 15  1  0  0  0
 14 12  1  0  0  0
 12  6  1  0  0  0
  6  7  2  0  0  0
  7  8  1  0  0  0
  8  9  2  0  0  0
  9  5  1  0  0  0
  5  3  1  0  0  0
  3  1  1  0  0  0
  1  2  2  0  0  0
  1 16  1  0  0  0
 16 18  1  0  0  0
 18 19  2  0  0  0
 19 20  1  0  0  0
 20 21  2  0  0  0
 21 22  1  0  0  0
 22 23  2  0  0  0
 23 26  1  0  0  0
 26 27  2  0  0  0
 26 28  1  0  0  0
 23 24  1  0  0  0
 24 25  2  0  0  0
  9 10  1  0  0  0
 10 11  2  0  0  0
 11  6  1  0  0  0
 25 20  1  0  0  0
  3  4  1  0  0  0
 16 17  1  0  0  0
M  CHG 1  26   1
M  CHG 1  28  -1
M  END
> <minimizedAffinity>
-7.66308

> <CNNscore>
0.4466629028

> <CNNaffinity>
6.3202142715

> <CNN_VS>
2.8230051994

> <CNNaffinity_variance>
0.5064610243

$$$$
[H]C(=NN([H])C(=S)N([H])C([H])([H])c1c([H])c([H])c(OC([H])(C([H])([H])[H])C([H])([H])[H])c([H])c1[H])c1c([H])c([H])c([N+](=O)[O-])c([H])c1[H]


 28 29  0  0  0  0  0  0  0  0999 V2000
  -88.1830   26.1115   -1.2080 C   0  0  0  0  0  0  0  0  0  0  0  0
  -87.4790   25.9437    0.2486 S   0  0  0  0  0  0  0  0  0  0  0  0
  -87.8494   27.2152   -2.0157 N   0  0  0  0  0  0  0  0  0  0  0  0
  -87.1573   27.1198   -2.7822 H   0  0  0  0  0  0  0  0  0  0  0  0
  -88.4690   28.4991   -1.7864 C   0  0  0  0  0  0  0  0  0  0  0  0
  -85.7473   31.1993    0.1420 C   0  0  0  0  0  0  0  0  0  0  0  0
  -85.4288   29.8558   -0.0605 C   0  0  0  0  0  0  0  0  0  0  0  0
  -86.3137   29.0049   -0.6805 C   0  0  0  0  0  0  0  0  0  0  0  0
  -87.5417   29.4452   -1.1227 C   0  0  0  0  0  0  0  0  0  0  0  0
  -87.8221   30.7715   -0.9075 C   0  0  0  0  0  0  0  0  0  0  0  0
  -86.9508   31.6596   -0.2840 C   0  0  0  0  0  0  0  0  0  0  0  0
  -84.8314   32.0077    0.7650 O   0  0  0  0  0  0  0  0  0  0  0  0
  -82.9844   30.6089    1.4675 C   0  0  0  0  0  0  0  0  0  0  0  0
  -84.0160   31.6762    1.8306 C   0  0  0  0  0  0  0  0  0  0  0  0
  -84.8679   31.0953    2.9603 C   0  0  0  0  0  0  0  0  0  0  0  0
  -89.1314   25.1533   -1.6707 N   0  0  0  0  0  0  0  0  0  0  0  0
  -88.8172   24.2124   -2.0489 H   0  0  0  0  0  0  0  0  0  0  0  0
  -90.4649   25.3979   -1.6515 N   0  0  0  0  0  0  0  0  0  0  0  0
  -91.2869   25.8203   -0.8449 C   0  0  0  0  0  0  0  0  0  0  0  0
  -91.0616   26.2451    0.5157 C   0  0  0  0  0  0  0  0  0  0  0  0
  -91.0535   27.5507    0.9488 C   0  0  0  0  0  0  0  0  0  0  0  0
  -90.8303   27.9045    2.2779 C   0  0  0  0  0  0  0  0  0  0  0  0
  -90.6027   26.9481    3.2398 C   0  0  0  0  0  0  0  0  0  0  0  0
  -90.6046   25.6334    2.8369 C   0  0  0  0  0  0  0  0  0  0  0  0
  -90.8253   25.2981    1.5280 C   0  0  0  0  0  0  0  0  0  0  0  0
  -90.3746   27.3204    4.6008 N   0  0  0  0  0  0  0  0  0  0  0  0
  -90.1852   28.5198    4.8774 O   0  0  0  0  0  0  0  0  0  0  0  0
  -90.3774   26.3198    5.5383 O   0  0  0  0  0  0  0  0  0  0  0  0
 13 14  1  0  0  0
 14 15  1  0  0  0
 14 12  1  0  0  0
 12  6  1  0  0  0
  6  7  2  0  0  0
  7  8  1  0  0  0
  8  9  2  0  0  0
  9  5  1  0  0  0
  5  3  1  0  0  0
  3  1  1  0  0  0
  1  2  2  0  0  0
  1 16  1  0  0  0
 16 18  1  0  0  0
 18 19  2  0  0  0
 19 20  1  0  0  0
 20 21  2  0  0  0
 21 22  1  0  0  0
 22 23  2  0  0  0
 23 26  1  0  0  0
 26 27  2  0  0  0
 26 28  1  0  0  0
 23 24  1  0  0  0
 24 25  2  0  0  0
  9 10  1  0  0  0
 10 11  2  0  0  0
 11  6  1  0  0  0
 25 20  1  0  0  0
  3  4  1  0  0  0
 16 17  1  0  0  0
M  CHG 1  26   1
M  CHG 1  28  -1
M  END
> <minimizedAffinity>
-7.56241

> <CNNscore>
0.3525291383

> <CNNaffinity>
5.8501801491

> <CNN_VS>
2.0623588562

> <CNNaffinity_variance>
0.2667583525

$$$$
[H]C(=NN([H])C(=S)N([H])C([H])([H])c1c([H])c([H])c(OC([H])(C([H])([H])[H])C([H])([H])[H])c([H])c1[H])c1c([H])c([H])c([N+](=O)[O-])c([H])c1[H]


 28 29  0  0  0  0  0  0  0  0999 V2000
  -89.1038   25.6148   -1.7542 C   0  0  0  0  0  0  0  0  0  0  0  0
  -89.8428   24.1662   -1.7226 S   0  0  0  0  0  0  0  0  0  0  0  0
  -89.6684   26.6645   -2.5033 N   0  0  0  0  0  0  0  0  0  0  0  0
  -89.5006   26.7356   -3.5243 H   0  0  0  0  0  0  0  0  0  0  0  0
  -90.4918   27.6593   -1.8573 C   0  0  0  0  0  0  0  0  0  0  0  0
  -88.4713   31.4209   -1.4260 C   0  0  0  0  0  0  0  0  0  0  0  0
  -89.4243   30.9890   -0.5025 C   0  0  0  0  0  0  0  0  0  0  0  0
  -90.0618   29.7802   -0.6569 C   0  0  0  0  0  0  0  0  0  0  0  0
  -89.7847   28.9545   -1.7241 C   0  0  0  0  0  0  0  0  0  0  0  0
  -88.8428   29.4101   -2.6126 C   0  0  0  0  0  0  0  0  0  0  0  0
  -88.1791   30.6268   -2.4870 C   0  0  0  0  0  0  0  0  0  0  0  0
  -87.8633   32.6339   -1.2281 O   0  0  0  0  0  0  0  0  0  0  0  0
  -85.6607   33.4757   -0.6792 C   0  0  0  0  0  0  0  0  0  0  0  0
  -86.6597   33.0591   -1.7579 C   0  0  0  0  0  0  0  0  0  0  0  0
  -86.8971   34.2903   -2.6338 C   0  0  0  0  0  0  0  0  0  0  0  0
  -87.8937   25.8284   -1.0319 N   0  0  0  0  0  0  0  0  0  0  0  0
  -86.9830   26.0292   -1.5392 H   0  0  0  0  0  0  0  0  0  0  0  0
  -87.8500   25.7831    0.3225 N   0  0  0  0  0  0  0  0  0  0  0  0
  -87.3038   26.4121    1.2229 C   0  0  0  0  0  0  0  0  0  0  0  0
  -86.4200   27.5469    1.1066 C   0  0  0  0  0  0  0  0  0  0  0  0
  -86.5346   28.5500    0.1723 C   0  0  0  0  0  0  0  0  0  0  0  0
  -85.6507   29.6250    0.1055 C   0  0  0  0  0  0  0  0  0  0  0  0
  -84.6007   29.7381    0.9867 C   0  0  0  0  0  0  0  0  0  0  0  0
  -84.4601   28.7500    1.9326 C   0  0  0  0  0  0  0  0  0  0  0  0
  -85.3351   27.6986    1.9883 C   0  0  0  0  0  0  0  0  0  0  0  0
  -83.6989   30.8444    0.9107 N   0  0  0  0  0  0  0  0  0  0  0  0
  -82.9644   30.9601   -0.0884 O   0  0  0  0  0  0  0  0  0  0  0  0
  -83.6941   31.7286    1.9587 O   0  0  0  0  0  0  0  0  0  0  0  0
 13 14  1  0  0  0
 14 15  1  0  0  0
 14 12  1  0  0  0
 12  6  1  0  0  0
  6  7  2  0  0  0
  7  8  1  0  0  0
  8  9  2  0  0  0
  9  5  1  0  0  0
  5  3  1  0  0  0
  3  1  1  0  0  0
  1  2  2  0  0  0
  1 16  1  0  0  0
 16 18  1  0  0  0
 18 19  2  0  0  0
 19 20  1  0  0  0
 20 21  2  0  0  0
 21 22  1  0  0  0
 22 23  2  0  0  0
 23 26  1  0  0  0
 26 27  2  0  0  0
 26 28  1  0  0  0
 23 24  1  0  0  0
 24 25  2  0  0  0
  9 10  1  0  0  0
 10 11  2  0  0  0
 11  6  1  0  0  0
 25 20  1  0  0  0
  3  4  1  0  0  0
 16 17  1  0  0  0
M  CHG 1  26   1
M  CHG 1  28  -1
M  END
> <minimizedAffinity>
-7.05556

> <CNNscore>
0.3374820948

> <CNNaffinity>
5.8295049667

> <CNN_VS>
1.9673535824

> <CNNaffinity_variance>
0.4459454119

$$$$
[H]c1nc(N([H])[H])c(C(=O)N([H])c2c([H])nc([H])c([H])c2N2C([H])([H])C([H])([H])C([H])(N([H])[H])C([H])([H])C2([H])[H])nc1-c1c([H])c([H])c(OC([H])([H])[H])c([H])c1[H]


 36 39  0  0  0  0  0  0  0  0999 V2000
  -85.8643   30.3560    1.0455 C   0  0  0  0  0  0  0  0  0  0  0  0
  -85.5572   30.4896    2.2461 O   0  0  0  0  0  0  0  0  0  0  0  0
  -86.5798   29.3046    0.4559 N   0  0  0  0  0  0  0  0  0  0  0  0
  -86.7445   29.4102   -0.5944 H   0  0  0  0  0  0  0  0  0  0  0  0
  -85.9376   33.1047   -1.4548 C   0  0  0  0  0  0  0  0  0  0  0  0
  -84.6249   33.4918   -1.4477 C   0  0  0  0  0  0  0  0  0  0  0  0
  -83.7038   32.8780   -0.6434 N   0  0  0  0  0  0  0  0  0  0  0  0
  -84.0949   31.8639    0.1664 C   0  0  0  0  0  0  0  0  0  0  0  0
  -83.1588   31.2003    1.0211 N   0  0  0  0  0  0  0  0  0  0  0  0
  -85.3965   31.4658    0.1723 C   0  0  0  0  0  0  0  0  0  0  0  0
  -86.2886   32.0974   -0.6404 N   0  0  0  0  0  0  0  0  0  0  0  0
  -82.7459   30.2818    0.7618 H   0  0  0  0  0  0  0  0  0  0  0  0
  -82.8935   31.6427    1.9049 H   0  0  0  0  0  0  0  0  0  0  0  0
  -88.9699   34.8985   -3.8659 C   0  0  0  0  0  0  0  0  0  0  0  0
  -87.6476   35.0717   -4.1924 C   0  0  0  0  0  0  0  0  0  0  0  0
  -86.6869   34.4872   -3.4043 C   0  0  0  0  0  0  0  0  0  0  0  0
  -86.9425   33.7270   -2.2923 C   0  0  0  0  0  0  0  0  0  0  0  0
  -88.3018   33.5687   -1.9853 C   0  0  0  0  0  0  0  0  0  0  0  0
  -89.2969   34.1403   -2.7528 C   0  0  0  0  0  0  0  0  0  0  0  0
  -90.9265   36.2931   -4.0703 C   0  0  0  0  0  0  0  0  0  0  0  0
  -89.9375   35.4840   -4.6552 O   0  0  0  0  0  0  0  0  0  0  0  0
  -87.1222   28.1548    1.0658 C   0  0  0  0  0  0  0  0  0  0  0  0
  -86.4656   27.4447    2.0251 C   0  0  0  0  0  0  0  0  0  0  0  0
  -87.0219   26.3775    2.6250 N   0  0  0  0  0  0  0  0  0  0  0  0
  -88.2522   25.9558    2.3110 C   0  0  0  0  0  0  0  0  0  0  0  0
  -88.9631   26.6303    1.3512 C   0  0  0  0  0  0  0  0  0  0  0  0
  -88.4023   27.7385    0.7177 C   0  0  0  0  0  0  0  0  0  0  0  0
  -89.1308   28.3999   -0.2976 N   0  0  0  0  0  0  0  0  0  0  0  0
  -89.4964   29.7875   -0.2733 C   0  0  0  0  0  0  0  0  0  0  0  0
  -89.1253   30.4378   -1.5861 C   0  0  0  0  0  0  0  0  0  0  0  0
  -88.2401   29.5385   -2.3886 C   0  0  0  0  0  0  0  0  0  0  0  0
  -87.9949   30.1263   -3.7128 N   0  0  0  0  0  0  0  0  0  0  0  0
  -88.8108   28.1719   -2.6537 C   0  0  0  0  0  0  0  0  0  0  0  0
  -89.5431   27.6284   -1.4622 C   0  0  0  0  0  0  0  0  0  0  0  0
  -87.5980   29.4188   -4.3387 H   0  0  0  0  0  0  0  0  0  0  0  0
  -87.4480   31.0071   -3.6377 H   0  0  0  0  0  0  0  0  0  0  0  0
 20 21  1  0  0  0
 21 14  1  0  0  0
 14 15  2  0  0  0
 15 16  1  0  0  0
 16 17  2  0  0  0
 17  5  1  0  0  0
  5  6  2  0  0  0
  6  7  1  0  0  0
  7  8  2  0  0  0
  8  9  1  0  0  0
  8 10  1  0  0  0
 10  1  1  0  0  0
  1  2  2  0  0  0
  1  3  1  0  0  0
  3 22  1  0  0  0
 22 23  2  0  0  0
 23 24  1  0  0  0
 24 25  2  0  0  0
 25 26  1  0  0  0
 26 27  2  0  0  0
 27 28  1  0  0  0
 28 29  1  0  0  0
 29 30  1  0  0  0
 30 31  1  0  0  0
 31 32  1  0  0  0
 31 33  1  0  0  0
 33 34  1  0  0  0
 10 11  2  0  0  0
 17 18  1  0  0  0
 18 19  2  0  0  0
 19 14  1  0  0  0
 11  5  1  0  0  0
 27 22  1  0  0  0
 34 28  1  0  0  0
  9 12  1  0  0  0
  9 13  1  0  0  0
  3  4  1  0  0  0
 32 35  1  0  0  0
 32 36  1  0  0  0
M  END
> <minimizedAffinity>
-7.99735

> <CNNscore>
0.5433152914

> <CNNaffinity>
7.2855935097

> <CNN_VS>
3.9583742619

> <CNNaffinity_variance>
0.0394308940

$$$$
[H]c1nc(N([H])[H])c(C(=O)N([H])c2c([H])nc([H])c([H])c2N2C([H])([H])C([H])([H])C([H])(N([H])[H])C([H])([H])C2([H])[H])nc1-c1c([H])c([H])c(OC([H])([H])[H])c([H])c1[H]


 36 39  0  0  0  0  0  0  0  0999 V2000
  -86.2456   32.6187   -0.9709 C   0  0  0  0  0  0  0  0  0  0  0  0
  -86.1939   33.7076   -0.3666 O   0  0  0  0  0  0  0  0  0  0  0  0
  -86.7368   32.3773   -2.2614 N   0  0  0  0  0  0  0  0  0  0  0  0
  -86.6632   31.3617   -2.5846 H   0  0  0  0  0  0  0  0  0  0  0  0
  -86.1051   29.3238    0.7426 C   0  0  0  0  0  0  0  0  0  0  0  0
  -84.8203   29.3352    1.2137 C   0  0  0  0  0  0  0  0  0  0  0  0
  -83.9864   30.3962    0.9879 N   0  0  0  0  0  0  0  0  0  0  0  0
  -84.4377   31.4618    0.2824 C   0  0  0  0  0  0  0  0  0  0  0  0
  -83.5929   32.5879    0.0267 N   0  0  0  0  0  0  0  0  0  0  0  0
  -85.7128   31.4674   -0.1938 C   0  0  0  0  0  0  0  0  0  0  0  0
  -86.5177   30.3957    0.0484 N   0  0  0  0  0  0  0  0  0  0  0  0
  -83.6643   33.4576    0.5922 H   0  0  0  0  0  0  0  0  0  0  0  0
  -82.9058   32.5313   -0.7297 H   0  0  0  0  0  0  0  0  0  0  0  0
  -88.7854   26.0469    1.2942 C   0  0  0  0  0  0  0  0  0  0  0  0
  -88.5626   26.9266    2.3244 C   0  0  0  0  0  0  0  0  0  0  0  0
  -87.6967   27.9740    2.1277 C   0  0  0  0  0  0  0  0  0  0  0  0
  -87.0194   28.2217    0.9616 C   0  0  0  0  0  0  0  0  0  0  0  0
  -87.2682   27.3060   -0.0711 C   0  0  0  0  0  0  0  0  0  0  0  0
  -88.1316   26.2405    0.0876 C   0  0  0  0  0  0  0  0  0  0  0  0
  -90.4369   24.9338    2.6538 C   0  0  0  0  0  0  0  0  0  0  0  0
  -89.6546   24.9938    1.4880 O   0  0  0  0  0  0  0  0  0  0  0  0
  -87.2853   33.2930   -3.1827 C   0  0  0  0  0  0  0  0  0  0  0  0
  -86.8624   34.5838   -3.2862 C   0  0  0  0  0  0  0  0  0  0  0  0
  -87.3693   35.4262   -4.2036 N   0  0  0  0  0  0  0  0  0  0  0  0
  -88.3175   35.0406   -5.0652 C   0  0  0  0  0  0  0  0  0  0  0  0
  -88.7843   33.7521   -5.0094 C   0  0  0  0  0  0  0  0  0  0  0  0
  -88.2713   32.8646   -4.0643 C   0  0  0  0  0  0  0  0  0  0  0  0
  -88.7901   31.5513   -3.9923 N   0  0  0  0  0  0  0  0  0  0  0  0
  -87.9953   30.3590   -3.9110 C   0  0  0  0  0  0  0  0  0  0  0  0
  -88.4994   29.4832   -2.7872 C   0  0  0  0  0  0  0  0  0  0  0  0
  -89.4625   30.2345   -1.9244 C   0  0  0  0  0  0  0  0  0  0  0  0
  -90.0421   29.3349   -0.9174 N   0  0  0  0  0  0  0  0  0  0  0  0
  -90.6348   30.8238   -2.6607 C   0  0  0  0  0  0  0  0  0  0  0  0
  -90.2367   31.3819   -3.9953 C   0  0  0  0  0  0  0  0  0  0  0  0
  -90.8626   29.7750   -0.4897 H   0  0  0  0  0  0  0  0  0  0  0  0
  -89.3187   29.0038   -0.2484 H   0  0  0  0  0  0  0  0  0  0  0  0
 20 21  1  0  0  0
 21 14  1  0  0  0
 14 15  2  0  0  0
 15 16  1  0  0  0
 16 17  2  0  0  0
 17  5  1  0  0  0
  5  6  2  0  0  0
  6  7  1  0  0  0
  7  8  2  0  0  0
  8  9  1  0  0  0
  8 10  1  0  0  0
 10  1  1  0  0  0
  1  2  2  0  0  0
  1  3  1  0  0  0
  3 22  1  0  0  0
 22 23  2  0  0  0
 23 24  1  0  0  0
 24 25  2  0  0  0
 25 26  1  0  0  0
 26 27  2  0  0  0
 27 28  1  0  0  0
 28 29  1  0  0  0
 29 30  1  0  0  0
 30 31  1  0  0  0
 31 32  1  0  0  0
 31 33  1  0  0  0
 33 34  1  0  0  0
 10 11  2  0  0  0
 17 18  1  0  0  0
 18 19  2  0  0  0
 19 14  1  0  0  0
 11  5  1  0  0  0
 27 22  1  0  0  0
 34 28  1  0  0  0
  9 12  1  0  0  0
  9 13  1  0  0  0
  3  4  1  0  0  0
 32 35  1  0  0  0
 32 36  1  0  0  0
M  END
> <minimizedAffinity>
-8.03239

> <CNNscore>
0.1687204093

> <CNNaffinity>
6.7919554710

> <CNN_VS>
1.1459414959

> <CNNaffinity_variance>
0.0694404393

$$$$
[H]c1nc(N([H])[H])c(C(=O)N([H])c2c([H])nc([H])c([H])c2N2C([H])([H])C([H])([H])C([H])(N([H])[H])C([H])([H])C2([H])[H])nc1-c1c([H])c([H])c(OC([H])([H])[H])c([H])c1[H]


 36 39  0  0  0  0  0  0  0  0999 V2000
  -86.5197   28.7986    1.7566 C   0  0  0  0  0  0  0  0  0  0  0  0
  -86.1188   28.5866    2.9176 O   0  0  0  0  0  0  0  0  0  0  0  0
  -87.5226   28.1126    1.0576 N   0  0  0  0  0  0  0  0  0  0  0  0
  -87.7139   28.4823    0.0737 H   0  0  0  0  0  0  0  0  0  0  0  0
  -85.9809   31.7961   -0.3734 C   0  0  0  0  0  0  0  0  0  0  0  0
  -84.6343   31.9830   -0.2157 C   0  0  0  0  0  0  0  0  0  0  0  0
  -83.8858   31.1529    0.5733 N   0  0  0  0  0  0  0  0  0  0  0  0
  -84.4862   30.1212    1.2153 C   0  0  0  0  0  0  0  0  0  0  0  0
  -83.7344   29.2341    2.0490 N   0  0  0  0  0  0  0  0  0  0  0  0
  -85.8245   29.9204    1.0699 C   0  0  0  0  0  0  0  0  0  0  0  0
  -86.5413   30.7647    0.2771 N   0  0  0  0  0  0  0  0  0  0  0  0
  -83.4278   28.3008    1.7083 H   0  0  0  0  0  0  0  0  0  0  0  0
  -83.4962   29.5288    2.9996 H   0  0  0  0  0  0  0  0  0  0  0  0
  -88.3365   34.3636   -2.8402 C   0  0  0  0  0  0  0  0  0  0  0  0
  -88.9484   33.3950   -2.0836 C   0  0  0  0  0  0  0  0  0  0  0  0
  -88.1736   32.5787   -1.2970 C   0  0  0  0  0  0  0  0  0  0  0  0
  -86.8078   32.6507   -1.2007 C   0  0  0  0  0  0  0  0  0  0  0  0
  -86.2128   33.6496   -1.9850 C   0  0  0  0  0  0  0  0  0  0  0  0
  -86.9573   34.4898   -2.7886 C   0  0  0  0  0  0  0  0  0  0  0  0
  -90.3825   34.7599   -4.0534 C   0  0  0  0  0  0  0  0  0  0  0  0
  -89.1114   35.1855   -3.6314 O   0  0  0  0  0  0  0  0  0  0  0  0
  -88.3155   27.0291    1.4884 C   0  0  0  0  0  0  0  0  0  0  0  0
  -88.5307   26.7445    2.8031 C   0  0  0  0  0  0  0  0  0  0  0  0
  -89.3278   25.7329    3.1898 N   0  0  0  0  0  0  0  0  0  0  0  0
  -89.9530   24.9509    2.3023 C   0  0  0  0  0  0  0  0  0  0  0  0
  -89.7746   25.1880    0.9632 C   0  0  0  0  0  0  0  0  0  0  0  0
  -88.9512   26.2319    0.5432 C   0  0  0  0  0  0  0  0  0  0  0  0
  -88.7451   26.4397   -0.8400 N   0  0  0  0  0  0  0  0  0  0  0  0
  -89.6633   26.0529   -1.8731 C   0  0  0  0  0  0  0  0  0  0  0  0
  -89.8958   27.2138   -2.8123 C   0  0  0  0  0  0  0  0  0  0  0  0
  -89.3472   28.4788   -2.2334 C   0  0  0  0  0  0  0  0  0  0  0  0
  -89.4631   29.5701   -3.2105 N   0  0  0  0  0  0  0  0  0  0  0  0
  -87.8892   28.4191   -1.8669 C   0  0  0  0  0  0  0  0  0  0  0  0
  -87.5161   27.0982   -1.2611 C   0  0  0  0  0  0  0  0  0  0  0  0
  -88.8828   30.3620   -2.9172 H   0  0  0  0  0  0  0  0  0  0  0  0
  -90.4588   29.7987   -3.4024 H   0  0  0  0  0  0  0  0  0  0  0  0
 20 21  1  0  0  0
 21 14  1  0  0  0
 14 15  2  0  0  0
 15 16  1  0  0  0
 16 17  2  0  0  0
 17  5  1  0  0  0
  5  6  2  0  0  0
  6  7  1  0  0  0
  7  8  2  0  0  0
  8  9  1  0  0  0
  8 10  1  0  0  0
 10  1  1  0  0  0
  1  2  2  0  0  0
  1  3  1  0  0  0
  3 22  1  0  0  0
 22 23  2  0  0  0
 23 24  1  0  0  0
 24 25  2  0  0  0
 25 26  1  0  0  0
 26 27  2  0  0  0
 27 28  1  0  0  0
 28 29  1  0  0  0
 29 30  1  0  0  0
 30 31  1  0  0  0
 31 32  1  0  0  0
 31 33  1  0  0  0
 33 34  1  0  0  0
 10 11  2  0  0  0
 17 18  1  0  0  0
 18 19  2  0  0  0
 19 14  1  0  0  0
 11  5  1  0  0  0
 27 22  1  0  0  0
 34 28  1  0  0  0
  9 12  1  0  0  0
  9 13  1  0  0  0
  3  4  1  0  0  0
 32 35  1  0  0  0
 32 36  1  0  0  0
M  END
> <minimizedAffinity>
-8.40678

> <CNNscore>
0.1371995658

> <CNNaffinity>
6.8195137978

> <CNN_VS>
0.9356343150

> <CNNaffinity_variance>
0.0663990304

$$$$
[H]c1nc(N([H])[H])c(C(=O)N([H])c2c([H])nc([H])c([H])c2N2C([H])([H])C([H])([H])C([H])(N([H])[H])C([H])([H])C2([H])[H])nc1-c1c([H])c([H])c(OC([H])([H])[H])c([H])c1[H]


 36 39  0  0  0  0  0  0  0  0999 V2000
  -87.2058   31.9531   -1.1959 C   0  0  0  0  0  0  0  0  0  0  0  0
  -87.0645   33.0194   -0.5662 O   0  0  0  0  0  0  0  0  0  0  0  0
  -86.8073   30.6674   -0.8045 N   0  0  0  0  0  0  0  0  0  0  0  0
  -87.0502   29.8935   -1.4997 H   0  0  0  0  0  0  0  0  0  0  0  0
  -89.7008   31.5261   -3.9172 C   0  0  0  0  0  0  0  0  0  0  0  0
  -89.1701   32.3405   -4.8806 C   0  0  0  0  0  0  0  0  0  0  0  0
  -88.0098   33.0341   -4.6695 N   0  0  0  0  0  0  0  0  0  0  0  0
  -87.3679   32.9158   -3.4816 C   0  0  0  0  0  0  0  0  0  0  0  0
  -86.1530   33.6272   -3.2262 N   0  0  0  0  0  0  0  0  0  0  0  0
  -87.8814   32.1104   -2.5120 C   0  0  0  0  0  0  0  0  0  0  0  0
  -89.0383   31.4333   -2.7538 N   0  0  0  0  0  0  0  0  0  0  0  0
  -85.2267   33.1610   -3.3018 H   0  0  0  0  0  0  0  0  0  0  0  0
  -86.2021   34.6152   -2.9639 H   0  0  0  0  0  0  0  0  0  0  0  0
  -93.3361   29.3737   -4.5319 C   0  0  0  0  0  0  0  0  0  0  0  0
  -92.4501   28.9555   -3.5701 C   0  0  0  0  0  0  0  0  0  0  0  0
  -91.2861   29.6607   -3.3877 C   0  0  0  0  0  0  0  0  0  0  0  0
  -90.9249   30.7739   -4.1020 C   0  0  0  0  0  0  0  0  0  0  0  0
  -91.8502   31.1758   -5.0763 C   0  0  0  0  0  0  0  0  0  0  0  0
  -93.0312   30.4933   -5.2898 C   0  0  0  0  0  0  0  0  0  0  0  0
  -94.5960   27.3315   -4.2931 C   0  0  0  0  0  0  0  0  0  0  0  0
  -94.5063   28.6681   -4.7179 O   0  0  0  0  0  0  0  0  0  0  0  0
  -86.1583   30.2673    0.3816 C   0  0  0  0  0  0  0  0  0  0  0  0
  -85.1629   30.9932    0.9632 C   0  0  0  0  0  0  0  0  0  0  0  0
  -84.5898   30.6145    2.1192 N   0  0  0  0  0  0  0  0  0  0  0  0
  -84.9675   29.5029    2.7608 C   0  0  0  0  0  0  0  0  0  0  0  0
  -85.9651   28.7298    2.2237 C   0  0  0  0  0  0  0  0  0  0  0  0
  -86.5704   29.1060    1.0254 C   0  0  0  0  0  0  0  0  0  0  0  0
  -87.5697   28.2787    0.4632 N   0  0  0  0  0  0  0  0  0  0  0  0
  -87.3209   27.1869   -0.4346 C   0  0  0  0  0  0  0  0  0  0  0  0
  -88.0619   25.9571    0.0371 C   0  0  0  0  0  0  0  0  0  0  0  0
  -88.5812   26.1544    1.4256 C   0  0  0  0  0  0  0  0  0  0  0  0
  -89.4082   25.0057    1.8205 N   0  0  0  0  0  0  0  0  0  0  0  0
  -89.4605   27.3628    1.5995 C   0  0  0  0  0  0  0  0  0  0  0  0
  -88.9583   28.5401    0.8166 C   0  0  0  0  0  0  0  0  0  0  0  0
  -89.9513   25.2401    2.6571 H   0  0  0  0  0  0  0  0  0  0  0  0
  -88.8385   24.1392    1.8914 H   0  0  0  0  0  0  0  0  0  0  0  0
 20 21  1  0  0  0
 21 14  1  0  0  0
 14 15  2  0  0  0
 15 16  1  0  0  0
 16 17  2  0  0  0
 17  5  1  0  0  0
  5  6  2  0  0  0
  6  7  1  0  0  0
  7  8  2  0  0  0
  8  9  1  0  0  0
  8 10  1  0  0  0
 10  1  1  0  0  0
  1  2  2  0  0  0
  1  3  1  0  0  0
  3 22  1  0  0  0
 22 23  2  0  0  0
 23 24  1  0  0  0
 24 25  2  0  0  0
 25 26  1  0  0  0
 26 27  2  0  0  0
 27 28  1  0  0  0
 28 29  1  0  0  0
 29 30  1  0  0  0
 30 31  1  0  0  0
 31 32  1  0  0  0
 31 33  1  0  0  0
 33 34  1  0  0  0
 10 11  2  0  0  0
 17 18  1  0  0  0
 18 19  2  0  0  0
 19 14  1  0  0  0
 11  5  1  0  0  0
 27 22  1  0  0  0
 34 28  1  0  0  0
  9 12  1  0  0  0
  9 13  1  0  0  0
  3  4  1  0  0  0
 32 35  1  0  0  0
 32 36  1  0  0  0
M  END
> <minimizedAffinity>
-7.73669

> <CNNscore>
0.0670941696

> <CNNaffinity>
6.1468019485

> <CNN_VS>
0.4124145806

> <CNNaffinity_variance>
0.1845560521

$$$$
[H]c1nc(N([H])[H])c(C(=O)N([H])c2c([H])nc([H])c([H])c2N2C([H])([H])C([H])([H])C([H])(N([H])[H])C([H])([H])C2([H])[H])nc1-c1c([H])c([H])c(OC([H])([H])[H])c([H])c1[H]


 36 39  0  0  0  0  0  0  0  0999 V2000
  -87.5976   31.7007   -2.2747 C   0  0  0  0  0  0  0  0  0  0  0  0
  -87.1557   32.1906   -3.3322 O   0  0  0  0  0  0  0  0  0  0  0  0
  -86.9501   31.6136   -1.0344 N   0  0  0  0  0  0  0  0  0  0  0  0
  -87.5322   31.1685   -0.2571 H   0  0  0  0  0  0  0  0  0  0  0  0
  -90.3857   29.2483   -2.4317 C   0  0  0  0  0  0  0  0  0  0  0  0
  -91.4554   30.0872   -2.5893 C   0  0  0  0  0  0  0  0  0  0  0  0
  -91.2958   31.4449   -2.6466 N   0  0  0  0  0  0  0  0  0  0  0  0
  -90.0529   31.9759   -2.5453 C   0  0  0  0  0  0  0  0  0  0  0  0
  -89.8492   33.3911   -2.6001 N   0  0  0  0  0  0  0  0  0  0  0  0
  -88.9775   31.1565   -2.3881 C   0  0  0  0  0  0  0  0  0  0  0  0
  -89.1703   29.8092   -2.3350 N   0  0  0  0  0  0  0  0  0  0  0  0
  -89.5271   33.8582   -3.4715 H   0  0  0  0  0  0  0  0  0  0  0  0
  -90.0253   33.9508   -1.7616 H   0  0  0  0  0  0  0  0  0  0  0  0
  -90.8363   25.0048   -2.3062 C   0  0  0  0  0  0  0  0  0  0  0  0
  -89.8489   25.6080   -1.5672 C   0  0  0  0  0  0  0  0  0  0  0  0
  -89.7196   26.9740   -1.6211 C   0  0  0  0  0  0  0  0  0  0  0  0
  -90.5121   27.8067   -2.3684 C   0  0  0  0  0  0  0  0  0  0  0  0
  -91.5108   27.1607   -3.1116 C   0  0  0  0  0  0  0  0  0  0  0  0
  -91.6727   25.7900   -3.0838 C   0  0  0  0  0  0  0  0  0  0  0  0
  -92.0535   23.0077   -2.8933 C   0  0  0  0  0  0  0  0  0  0  0  0
  -90.9693   23.6331   -2.2544 O   0  0  0  0  0  0  0  0  0  0  0  0
  -85.6578   32.0529   -0.6806 C   0  0  0  0  0  0  0  0  0  0  0  0
  -85.0147   33.0635   -1.3294 C   0  0  0  0  0  0  0  0  0  0  0  0
  -83.8008   33.4956   -0.9449 N   0  0  0  0  0  0  0  0  0  0  0  0
  -83.1590   32.9551    0.0972 C   0  0  0  0  0  0  0  0  0  0  0  0
  -83.7560   31.9329    0.7901 C   0  0  0  0  0  0  0  0  0  0  0  0
  -85.0140   31.4709    0.4056 C   0  0  0  0  0  0  0  0  0  0  0  0
  -85.5998   30.3903    1.1043 N   0  0  0  0  0  0  0  0  0  0  0  0
  -86.1845   29.2346    0.4860 C   0  0  0  0  0  0  0  0  0  0  0  0
  -85.6457   27.9798    1.1333 C   0  0  0  0  0  0  0  0  0  0  0  0
  -84.4702   28.2972    2.0016 C   0  0  0  0  0  0  0  0  0  0  0  0
  -84.0396   27.0924    2.7242 N   0  0  0  0  0  0  0  0  0  0  0  0
  -84.7363   29.3300    3.0628 C   0  0  0  0  0  0  0  0  0  0  0  0
  -85.6134   30.4387    2.5599 C   0  0  0  0  0  0  0  0  0  0  0  0
  -83.4041   27.3521    3.4848 H   0  0  0  0  0  0  0  0  0  0  0  0
  -83.6749   26.3718    2.0698 H   0  0  0  0  0  0  0  0  0  0  0  0
 20 21  1  0  0  0
 21 14  1  0  0  0
 14 15  2  0  0  0
 15 16  1  0  0  0
 16 17  2  0  0  0
 17  5  1  0  0  0
  5  6  2  0  0  0
  6  7  1  0  0  0
  7  8  2  0  0  0
  8  9  1  0  0  0
  8 10  1  0  0  0
 10  1  1  0  0  0
  1  2  2  0  0  0
  1  3  1  0  0  0
  3 22  1  0  0  0
 22 23  2  0  0  0
 23 24  1  0  0  0
 24 25  2  0  0  0
 25 26  1  0  0  0
 26 27  2  0  0  0
 27 28  1  0  0  0
 28 29  1  0  0  0
 29 30  1  0  0  0
 30 31  1  0  0  0
 31 32  1  0  0  0
 31 33  1  0  0  0
 33 34  1  0  0  0
 10 11  2  0  0  0
 17 18  1  0  0  0
 18 19  2  0  0  0
 19 14  1  0  0  0
 11  5  1  0  0  0
 27 22  1  0  0  0
 34 28  1  0  0  0
  9 12  1  0  0  0
  9 13  1  0  0  0
  3  4  1  0  0  0
 32 35  1  0  0  0
 32 36  1  0  0  0
M  END
> <minimizedAffinity>
-8.28329

> <CNNscore>
0.0670024604

> <CNNaffinity>
6.6252427101

> <CNN_VS>
0.4439075589

> <CNNaffinity_variance>
0.0645284206

$$$$
[H]c1nc(N([H])[H])c(C(=O)N([H])c2c([H])nc([H])c([H])c2N2C([H])([H])C([H])([H])C([H])(N([H])[H])C([H])([H])C2([H])[H])nc1-c1c([H])c([H])c(OC([H])([H])[H])c([H])c1[H]


 36 39  0  0  0  0  0  0  0  0999 V2000
  -88.7724   32.1856   -1.4875 C   0  0  0  0  0  0  0  0  0  0  0  0
  -89.4303   32.4437   -0.4608 O   0  0  0  0  0  0  0  0  0  0  0  0
  -87.4659   31.6834   -1.5644 N   0  0  0  0  0  0  0  0  0  0  0  0
  -87.1082   31.5194   -2.5576 H   0  0  0  0  0  0  0  0  0  0  0  0
  -89.6573   33.7472   -4.7418 C   0  0  0  0  0  0  0  0  0  0  0  0
  -90.7627   33.0163   -5.0839 C   0  0  0  0  0  0  0  0  0  0  0  0
  -91.2355   32.0171   -4.2776 N   0  0  0  0  0  0  0  0  0  0  0  0
  -90.5987   31.7408   -3.1135 C   0  0  0  0  0  0  0  0  0  0  0  0
  -91.0650   30.7023   -2.2468 N   0  0  0  0  0  0  0  0  0  0  0  0
  -89.4978   32.4576   -2.7575 C   0  0  0  0  0  0  0  0  0  0  0  0
  -89.0526   33.4459   -3.5822 N   0  0  0  0  0  0  0  0  0  0  0  0
  -91.6345   30.9162   -1.4034 H   0  0  0  0  0  0  0  0  0  0  0  0
  -90.8305   29.7305   -2.4655 H   0  0  0  0  0  0  0  0  0  0  0  0
  -88.1777   36.8907   -7.2228 C   0  0  0  0  0  0  0  0  0  0  0  0
  -87.3806   36.3699   -6.2337 C   0  0  0  0  0  0  0  0  0  0  0  0
  -87.8746   35.3595   -5.4458 C   0  0  0  0  0  0  0  0  0  0  0  0
  -89.1265   34.8136   -5.5660 C   0  0  0  0  0  0  0  0  0  0  0  0
  -89.9160   35.3666   -6.5848 C   0  0  0  0  0  0  0  0  0  0  0  0
  -89.4554   36.3831   -7.3976 C   0  0  0  0  0  0  0  0  0  0  0  0
  -86.5869   38.6671   -7.5816 C   0  0  0  0  0  0  0  0  0  0  0  0
  -87.6850   37.9054   -8.0162 O   0  0  0  0  0  0  0  0  0  0  0  0
  -86.5854   31.3497   -0.5149 C   0  0  0  0  0  0  0  0  0  0  0  0
  -85.6802   32.2274    0.0009 C   0  0  0  0  0  0  0  0  0  0  0  0
  -84.8818   31.9007    1.0324 N   0  0  0  0  0  0  0  0  0  0  0  0
  -84.9343   30.6941    1.6081 C   0  0  0  0  0  0  0  0  0  0  0  0
  -85.8258   29.7668    1.1319 C   0  0  0  0  0  0  0  0  0  0  0  0
  -86.6610   30.0872    0.0625 C   0  0  0  0  0  0  0  0  0  0  0  0
  -87.5470   29.1083   -0.4434 N   0  0  0  0  0  0  0  0  0  0  0  0
  -87.3176   28.3272   -1.6254 C   0  0  0  0  0  0  0  0  0  0  0  0
  -87.5572   26.8651   -1.3274 C   0  0  0  0  0  0  0  0  0  0  0  0
  -87.6692   26.6387    0.1466 C   0  0  0  0  0  0  0  0  0  0  0  0
  -88.0311   25.2398    0.4139 N   0  0  0  0  0  0  0  0  0  0  0  0
  -88.7251   27.4655    0.8287 C   0  0  0  0  0  0  0  0  0  0  0  0
  -88.7858   28.8612    0.2816 C   0  0  0  0  0  0  0  0  0  0  0  0
  -88.3392   25.1405    1.3860 H   0  0  0  0  0  0  0  0  0  0  0  0
  -87.2715   24.5929    0.1224 H   0  0  0  0  0  0  0  0  0  0  0  0
 20 21  1  0  0  0
 21 14  1  0  0  0
 14 15  2  0  0  0
 15 16  1  0  0  0
 16 17  2  0  0  0
 17  5  1  0  0  0
  5  6  2  0  0  0
  6  7  1  0  0  0
  7  8  2  0  0  0
  8  9  1  0  0  0
  8 10  1  0  0  0
 10  1  1  0  0  0
  1  2  2  0  0  0
  1  3  1  0  0  0
  3 22  1  0  0  0
 22 23  2  0  0  0
 23 24  1  0  0  0
 24 25  2  0  0  0
 25 26  1  0  0  0
 26 27  2  0  0  0
 27 28  1  0  0  0
 28 29  1  0  0  0
 29 30  1  0  0  0
 30 31  1  0  0  0
 31 32  1  0  0  0
 31 33  1  0  0  0
 33 34  1  0  0  0
 10 11  2  0  0  0
 17 18  1  0  0  0
 18 19  2  0  0  0
 19 14  1  0  0  0
 11  5  1  0  0  0
 27 22  1  0  0  0
 34 28  1  0  0  0
  9 12  1  0  0  0
  9 13  1  0  0  0
  3  4  1  0  0  0
 32 35  1  0  0  0
 32 36  1  0  0  0
M  END
> <minimizedAffinity>
-7.99643

> <CNNscore>
0.0548168123

> <CNNaffinity>
5.9504847527

> <CNN_VS>
0.3261865973

> <CNNaffinity_variance>
0.1603899896

$$$$
[H]c1nc(N([H])[H])c(C(=O)N([H])c2c([H])nc([H])c([H])c2N2C([H])([H])C([H])([H])C([H])(N([H])[H])C([H])([H])C2([H])[H])nc1-c1c([H])c([H])c(OC([H])([H])[H])c([H])c1[H]


 36 39  0  0  0  0  0  0  0  0999 V2000
  -90.8160   28.1840    1.1646 C   0  0  0  0  0  0  0  0  0  0  0  0
  -91.5648   28.6305    2.0554 O   0  0  0  0  0  0  0  0  0  0  0  0
  -90.3291   26.8764    1.0301 N   0  0  0  0  0  0  0  0  0  0  0  0
  -89.7138   26.7150    0.1719 H   0  0  0  0  0  0  0  0  0  0  0  0
  -88.7630   30.6917   -0.6545 C   0  0  0  0  0  0  0  0  0  0  0  0
  -89.6173   31.0355   -1.6669 C   0  0  0  0  0  0  0  0  0  0  0  0
  -90.8577   30.4688   -1.7779 N   0  0  0  0  0  0  0  0  0  0  0  0
  -91.2539   29.5458   -0.8679 C   0  0  0  0  0  0  0  0  0  0  0  0
  -92.5436   28.9322   -0.9541 N   0  0  0  0  0  0  0  0  0  0  0  0
  -90.4172   29.1918    0.1456 C   0  0  0  0  0  0  0  0  0  0  0  0
  -89.1889   29.7747    0.2281 N   0  0  0  0  0  0  0  0  0  0  0  0
  -93.3354   29.2509   -0.3601 H   0  0  0  0  0  0  0  0  0  0  0  0
  -92.6846   28.1640   -1.6153 H   0  0  0  0  0  0  0  0  0  0  0  0
  -84.8443   32.3110   -0.1567 C   0  0  0  0  0  0  0  0  0  0  0  0
  -85.8267   33.0703   -0.7427 C   0  0  0  0  0  0  0  0  0  0  0  0
  -87.0806   32.5317   -0.8944 C   0  0  0  0  0  0  0  0  0  0  0  0
  -87.4435   31.2694   -0.5007 C   0  0  0  0  0  0  0  0  0  0  0  0
  -86.4186   30.5193    0.0941 C   0  0  0  0  0  0  0  0  0  0  0  0
  -85.1454   31.0253    0.2642 C   0  0  0  0  0  0  0  0  0  0  0  0
  -82.4956   32.0127    0.3012 C   0  0  0  0  0  0  0  0  0  0  0  0
  -83.5837   32.8486   -0.0025 O   0  0  0  0  0  0  0  0  0  0  0  0
  -90.5630   25.7581    1.8566 C   0  0  0  0  0  0  0  0  0  0  0  0
  -90.4093   25.7911    3.2097 C   0  0  0  0  0  0  0  0  0  0  0  0
  -90.6820   24.7246    3.9820 N   0  0  0  0  0  0  0  0  0  0  0  0
  -91.1199   23.5725    3.4615 C   0  0  0  0  0  0  0  0  0  0  0  0
  -91.2938   23.4780    2.1043 C   0  0  0  0  0  0  0  0  0  0  0  0
  -91.0153   24.5730    1.2874 C   0  0  0  0  0  0  0  0  0  0  0  0
  -91.1612   24.4486   -0.1135 N   0  0  0  0  0  0  0  0  0  0  0  0
  -92.2859   24.9262   -0.8663 C   0  0  0  0  0  0  0  0  0  0  0  0
  -91.8043   25.7281   -2.0532 C   0  0  0  0  0  0  0  0  0  0  0  0
  -90.3448   26.0299   -1.9287 C   0  0  0  0  0  0  0  0  0  0  0  0
  -89.8635   26.6946   -3.1476 N   0  0  0  0  0  0  0  0  0  0  0  0
  -89.4676   24.8197   -1.7564 C   0  0  0  0  0  0  0  0  0  0  0  0
  -90.0963   23.7934   -0.8605 C   0  0  0  0  0  0  0  0  0  0  0  0
  -88.8391   26.6855   -3.1667 H   0  0  0  0  0  0  0  0  0  0  0  0
  -90.2997   27.6311   -3.2622 H   0  0  0  0  0  0  0  0  0  0  0  0
 20 21  1  0  0  0
 21 14  1  0  0  0
 14 15  2  0  0  0
 15 16  1  0  0  0
 16 17  2  0  0  0
 17  5  1  0  0  0
  5  6  2  0  0  0
  6  7  1  0  0  0
  7  8  2  0  0  0
  8  9  1  0  0  0
  8 10  1  0  0  0
 10  1  1  0  0  0
  1  2  2  0  0  0
  1  3  1  0  0  0
  3 22  1  0  0  0
 22 23  2  0  0  0
 23 24  1  0  0  0
 24 25  2  0  0  0
 25 26  1  0  0  0
 26 27  2  0  0  0
 27 28  1  0  0  0
 28 29  1  0  0  0
 29 30  1  0  0  0
 30 31  1  0  0  0
 31 32  1  0  0  0
 31 33  1  0  0  0
 33 34  1  0  0  0
 10 11  2  0  0  0
 17 18  1  0  0  0
 18 19  2  0  0  0
 19 14  1  0  0  0
 11  5  1  0  0  0
 27 22  1  0  0  0
 34 28  1  0  0  0
  9 12  1  0  0  0
  9 13  1  0  0  0
  3  4  1  0  0  0
 32 35  1  0  0  0
 32 36  1  0  0  0
M  END
> <minimizedAffinity>
-8.78826

> <CNNscore>
0.0405082777

> <CNNaffinity>
5.7579154968

> <CNN_VS>
0.2332432419

> <CNNaffinity_variance>
0.2636201978

$$$$
[H]c1nc(N([H])[H])c(C(=O)N([H])c2c([H])nc([H])c([H])c2N2C([H])([H])C([H])([H])C([H])(N([H])[H])C([H])([H])C2([H])[H])nc1-c1c([H])c([H])c(OC([H])([H])[H])c([H])c1[H]


 36 39  0  0  0  0  0  0  0  0999 V2000
  -88.3287   28.1077    0.0090 C   0  0  0  0  0  0  0  0  0  0  0  0
  -88.6341   28.1896    1.2146 O   0  0  0  0  0  0  0  0  0  0  0  0
  -87.3591   28.8479   -0.6817 N   0  0  0  0  0  0  0  0  0  0  0  0
  -87.2545   28.5936   -1.7139 H   0  0  0  0  0  0  0  0  0  0  0  0
  -90.8830   26.6397   -2.2565 C   0  0  0  0  0  0  0  0  0  0  0  0
  -90.5811   25.3088   -2.1539 C   0  0  0  0  0  0  0  0  0  0  0  0
  -89.5578   24.8679   -1.3598 N   0  0  0  0  0  0  0  0  0  0  0  0
  -88.8238   25.7650   -0.6573 C   0  0  0  0  0  0  0  0  0  0  0  0
  -87.7461   25.3394    0.1821 N   0  0  0  0  0  0  0  0  0  0  0  0
  -89.1100   27.0926   -0.7474 C   0  0  0  0  0  0  0  0  0  0  0  0
  -90.1353   27.4989   -1.5468 N   0  0  0  0  0  0  0  0  0  0  0  0
  -87.8634   25.2534    1.2118 H   0  0  0  0  0  0  0  0  0  0  0  0
  -86.8430   25.1163   -0.2444 H   0  0  0  0  0  0  0  0  0  0  0  0
  -94.0265   28.0696   -4.7665 C   0  0  0  0  0  0  0  0  0  0  0  0
  -93.8313   28.6331   -3.5299 C   0  0  0  0  0  0  0  0  0  0  0  0
  -92.8153   28.1592   -2.7370 C   0  0  0  0  0  0  0  0  0  0  0  0
  -91.9586   27.1465   -3.0840 C   0  0  0  0  0  0  0  0  0  0  0  0
  -92.1836   26.5919   -4.3524 C   0  0  0  0  0  0  0  0  0  0  0  0
  -93.1944   27.0407   -5.1786 C   0  0  0  0  0  0  0  0  0  0  0  0
  -94.7463   29.1967   -6.7731 C   0  0  0  0  0  0  0  0  0  0  0  0
  -95.0459   28.5431   -5.5657 O   0  0  0  0  0  0  0  0  0  0  0  0
  -86.5008   29.8532   -0.1908 C   0  0  0  0  0  0  0  0  0  0  0  0
  -85.4562   29.5936    0.6442 C   0  0  0  0  0  0  0  0  0  0  0  0
  -84.6237   30.5629    1.0632 N   0  0  0  0  0  0  0  0  0  0  0  0
  -84.7772   31.8360    0.6814 C   0  0  0  0  0  0  0  0  0  0  0  0
  -85.8120   32.1595   -0.1588 C   0  0  0  0  0  0  0  0  0  0  0  0
  -86.6859   31.1681   -0.6029 C   0  0  0  0  0  0  0  0  0  0  0  0
  -87.7714   31.5227   -1.4367 N   0  0  0  0  0  0  0  0  0  0  0  0
  -88.8279   32.4219   -1.0693 C   0  0  0  0  0  0  0  0  0  0  0  0
  -89.0298   33.4477   -2.1606 C   0  0  0  0  0  0  0  0  0  0  0  0
  -87.9001   33.4056   -3.1396 C   0  0  0  0  0  0  0  0  0  0  0  0
  -88.1737   34.3140   -4.2617 N   0  0  0  0  0  0  0  0  0  0  0  0
  -87.6609   32.0569   -3.7621 C   0  0  0  0  0  0  0  0  0  0  0  0
  -87.8315   30.9430   -2.7715 C   0  0  0  0  0  0  0  0  0  0  0  0
  -87.5330   34.1129   -5.0356 H   0  0  0  0  0  0  0  0  0  0  0  0
  -88.1906   35.3048   -3.9477 H   0  0  0  0  0  0  0  0  0  0  0  0
 20 21  1  0  0  0
 21 14  1  0  0  0
 14 15  2  0  0  0
 15 16  1  0  0  0
 16 17  2  0  0  0
 17  5  1  0  0  0
  5  6  2  0  0  0
  6  7  1  0  0  0
  7  8  2  0  0  0
  8  9  1  0  0  0
  8 10  1  0  0  0
 10  1  1  0  0  0
  1  2  2  0  0  0
  1  3  1  0  0  0
  3 22  1  0  0  0
 22 23  2  0  0  0
 23 24  1  0  0  0
 24 25  2  0  0  0
 25 26  1  0  0  0
 26 27  2  0  0  0
 27 28  1  0  0  0
 28 29  1  0  0  0
 29 30  1  0  0  0
 30 31  1  0  0  0
 31 32  1  0  0  0
 31 33  1  0  0  0
 33 34  1  0  0  0
 10 11  2  0  0  0
 17 18  1  0  0  0
 18 19  2  0  0  0
 19 14  1  0  0  0
 11  5  1  0  0  0
 27 22  1  0  0  0
 34 28  1  0  0  0
  9 12  1  0  0  0
  9 13  1  0  0  0
  3  4  1  0  0  0
 32 35  1  0  0  0
 32 36  1  0  0  0
M  END
> <minimizedAffinity>
-7.62070

> <CNNscore>
0.0349077359

> <CNNaffinity>
5.8203802109

> <CNN_VS>
0.2031762898

> <CNNaffinity_variance>
0.3180339336

$$$$
[H]c1nc(N([H])[H])c(C(=O)N([H])c2c([H])nc([H])c([H])c2N2C([H])([H])C([H])([H])C([H])(N([H])[H])C([H])([H])C2([H])[H])nc1-c1c([H])c([H])c(OC([H])([H])[H])c([H])c1[H]


 36 39  0  0  0  0  0  0  0  0999 V2000
  -88.1870   30.7639   -1.6529 C   0  0  0  0  0  0  0  0  0  0  0  0
  -87.8132   30.9036   -2.8337 O   0  0  0  0  0  0  0  0  0  0  0  0
  -87.4827   31.0925   -0.4864 N   0  0  0  0  0  0  0  0  0  0  0  0
  -88.0107   30.9025    0.4226 H   0  0  0  0  0  0  0  0  0  0  0  0
  -90.8894   28.3930   -0.7103 C   0  0  0  0  0  0  0  0  0  0  0  0
  -91.9843   29.0388   -1.2172 C   0  0  0  0  0  0  0  0  0  0  0  0
  -91.8694   30.2385   -1.8650 N   0  0  0  0  0  0  0  0  0  0  0  0
  -90.6464   30.8043   -2.0103 C   0  0  0  0  0  0  0  0  0  0  0  0
  -90.4894   32.0582   -2.6812 N   0  0  0  0  0  0  0  0  0  0  0  0
  -89.5464   30.1761   -1.5123 C   0  0  0  0  0  0  0  0  0  0  0  0
  -89.6948   28.9827   -0.8727 N   0  0  0  0  0  0  0  0  0  0  0  0
  -90.1715   32.1069   -3.6701 H   0  0  0  0  0  0  0  0  0  0  0  0
  -90.6952   32.9223   -2.1730 H   0  0  0  0  0  0  0  0  0  0  0  0
  -91.0442   24.6729    1.3786 C   0  0  0  0  0  0  0  0  0  0  0  0
  -91.9358   24.9237    0.3650 C   0  0  0  0  0  0  0  0  0  0  0  0
  -91.8704   26.1263   -0.2946 C   0  0  0  0  0  0  0  0  0  0  0  0
  -90.9684   27.1218   -0.0203 C   0  0  0  0  0  0  0  0  0  0  0  0
  -90.0717   26.8355    1.0194 C   0  0  0  0  0  0  0  0  0  0  0  0
  -90.1056   25.6385    1.7064 C   0  0  0  0  0  0  0  0  0  0  0  0
  -90.9184   23.4201    3.4351 C   0  0  0  0  0  0  0  0  0  0  0  0
  -91.1068   23.4662    2.0433 O   0  0  0  0  0  0  0  0  0  0  0  0
  -86.1958   31.6551   -0.3613 C   0  0  0  0  0  0  0  0  0  0  0  0
  -85.7710   32.7089   -1.1129 C   0  0  0  0  0  0  0  0  0  0  0  0
  -84.5550   33.2577   -0.9442 N   0  0  0  0  0  0  0  0  0  0  0  0
  -83.6963   32.7971   -0.0274 C   0  0  0  0  0  0  0  0  0  0  0  0
  -84.0671   31.7368    0.7597 C   0  0  0  0  0  0  0  0  0  0  0  0
  -85.3236   31.1542    0.5986 C   0  0  0  0  0  0  0  0  0  0  0  0
  -85.6770   30.0369    1.3896 N   0  0  0  0  0  0  0  0  0  0  0  0
  -86.1180   28.7728    0.8725 C   0  0  0  0  0  0  0  0  0  0  0  0
  -85.3407   27.6532    1.5254 C   0  0  0  0  0  0  0  0  0  0  0  0
  -84.1670   28.1947    2.2775 C   0  0  0  0  0  0  0  0  0  0  0  0
  -83.4984   27.1120    3.0123 N   0  0  0  0  0  0  0  0  0  0  0  0
  -84.5106   29.2316    3.3122 C   0  0  0  0  0  0  0  0  0  0  0  0
  -85.5869   30.1631    2.8378 C   0  0  0  0  0  0  0  0  0  0  0  0
  -82.8555   27.5078    3.7050 H   0  0  0  0  0  0  0  0  0  0  0  0
  -83.0758   26.4208    2.3609 H   0  0  0  0  0  0  0  0  0  0  0  0
 20 21  1  0  0  0
 21 14  1  0  0  0
 14 15  2  0  0  0
 15 16  1  0  0  0
 16 17  2  0  0  0
 17  5  1  0  0  0
  5  6  2  0  0  0
  6  7  1  0  0  0
  7  8  2  0  0  0
  8  9  1  0  0  0
  8 10  1  0  0  0
 10  1  1  0  0  0
  1  2  2  0  0  0
  1  3  1  0  0  0
  3 22  1  0  0  0
 22 23  2  0  0  0
 23 24  1  0  0  0
 24 25  2  0  0  0
 25 26  1  0  0  0
 26 27  2  0  0  0
 27 28  1  0  0  0
 28 29  1  0  0  0
 29 30  1  0  0  0
 30 31  1  0  0  0
 31 32  1  0  0  0
 31 33  1  0  0  0
 33 34  1  0  0  0
 10 11  2  0  0  0
 17 18  1  0  0  0
 18 19  2  0  0  0
 19 14  1  0  0  0
 11  5  1  0  0  0
 27 22  1  0  0  0
 34 28  1  0  0  0
  9 12  1  0  0  0
  9 13  1  0  0  0
  3  4  1  0  0  0
 32 35  1  0  0  0
 32 36  1  0  0  0
M  END
> <minimizedAffinity>
-8.21755

> <CNNscore>
0.0333785638

> <CNNaffinity>
6.4299645424

> <CNN_VS>
0.2146229893

> <CNNaffinity_variance>
0.0380252004

$$$$
[H]c1c([H])c(N([H])C(=O)N([H])[C@]([H])(C(=O)N([H])[C@]([H])(C(=O)N([H])[H])C([H])([H])C([H])([H])C([H])([H])[H])C([H])([H])C([H])(C([H])([H])[H])C([H])([H])[H])c([H])c([H])c1Br


 31 31  0  0  0  0  0  0  0  0999 V2000
  -87.0886   29.2452   -0.3044 C   0  0  0  0  0  0  0  0  0  0  0  0
  -87.2537   28.0154   -1.0701 N   0  0  0  0  0  0  0  0  0  0  0  0
  -88.3484   27.1642   -0.7924 C   0  0  0  0  0  0  0  0  0  0  0  0
  -89.1845   27.4684    0.1200 O   0  0  0  0  0  0  0  0  0  0  0  0
  -88.5291   25.9804   -1.5122 N   0  0  0  0  0  0  0  0  0  0  0  0
  -86.5809   27.7831   -1.7946 H   0  0  0  0  0  0  0  0  0  0  0  0
  -87.7787   25.7950   -2.2562 H   0  0  0  0  0  0  0  0  0  0  0  0
  -89.5593   25.0221   -1.3863 C   0  0  0  0  0  0  0  0  0  0  0  0
  -89.5733   23.9666   -0.5164 C   0  0  0  0  0  0  0  0  0  0  0  0
  -90.6362   23.0458   -0.4744 C   0  0  0  0  0  0  0  0  0  0  0  0
  -91.7166   23.1661   -1.3109 C   0  0  0  0  0  0  0  0  0  0  0  0
  -93.1603   21.9136   -1.2528 Br  0  0  0  0  0  0  0  0  0  0  0  0
  -91.7167   24.2198   -2.1883 C   0  0  0  0  0  0  0  0  0  0  0  0
  -90.6793   25.1191   -2.2301 C   0  0  0  0  0  0  0  0  0  0  0  0
  -87.5066   30.7157   -2.2917 N   0  0  0  0  0  0  0  0  0  0  0  0
  -87.8829   30.2712   -0.9800 C   0  0  0  0  0  0  0  0  0  0  0  0
  -88.9026   30.7824   -0.4092 O   0  0  0  0  0  0  0  0  0  0  0  0
  -86.6775   30.2701   -2.7301 H   0  0  0  0  0  0  0  0  0  0  0  0
  -88.2548   31.7463   -2.9764 C   0  0  0  0  0  0  0  0  0  0  0  0
  -88.3382   31.4177   -4.4201 C   0  0  0  0  0  0  0  0  0  0  0  0
  -89.3309   32.0727   -5.2265 N   0  0  0  0  0  0  0  0  0  0  0  0
  -87.6001   30.6037   -4.9923 O   0  0  0  0  0  0  0  0  0  0  0  0
  -90.1902   32.3971   -4.7529 H   0  0  0  0  0  0  0  0  0  0  0  0
  -89.2017   32.2220   -6.2546 H   0  0  0  0  0  0  0  0  0  0  0  0
  -87.5820   33.0768   -2.8210 C   0  0  0  0  0  0  0  0  0  0  0  0
  -86.2170   33.5548   -0.7342 C   0  0  0  0  0  0  0  0  0  0  0  0
  -86.2745   33.1322   -2.1522 C   0  0  0  0  0  0  0  0  0  0  0  0
  -85.6722   29.5185   -0.0116 C   0  0  0  0  0  0  0  0  0  0  0  0
  -85.2804   30.4312    1.0633 C   0  0  0  0  0  0  0  0  0  0  0  0
  -83.8479   30.9618    0.7466 C   0  0  0  0  0  0  0  0  0  0  0  0
  -85.1235   29.8273    2.4309 C   0  0  0  0  0  0  0  0  0  0  0  0
 26 27  1  0  0  0
 27 25  1  0  0  0
 25 19  1  0  0  0
 19 15  1  0  0  0
 15 16  1  0  0  0
 16 17  2  0  0  0
 16  1  1  0  0  0
  1 28  1  0  0  0
 28 29  1  0  0  0
 29 30  1  0  0  0
 29 31  1  0  0  0
  1  2  1  0  0  0
  2  3  1  0  0  0
  3  4  2  0  0  0
  3  5  1  0  0  0
  5  8  1  0  0  0
  8  9  2  0  0  0
  9 10  1  0  0  0
 10 11  2  0  0  0
 11 12  1  0  0  0
 11 13  1  0  0  0
 13 14  2  0  0  0
 19 20  1  0  0  0
 20 21  1  0  0  0
 20 22  2  0  0  0
 14  8  1  0  0  0
 15 18  1  0  0  0
  2  6  1  0  0  0
  5  7  1  0  0  0
 21 23  1  0  0  0
 21 24  1  0  0  0
M  END
> <minimizedAffinity>
-6.77074

> <CNNscore>
0.3051238358

> <CNNaffinity>
5.6635003090

> <CNN_VS>
1.7280689478

> <CNNaffinity_variance>
0.3428964019

$$$$
[H]c1c([H])c(N([H])C(=O)N([H])[C@]([H])(C(=O)N([H])[C@]([H])(C(=O)N([H])[H])C([H])([H])C([H])([H])C([H])([H])[H])C([H])([H])C([H])(C([H])([H])[H])C([H])([H])[H])c([H])c([H])c1Br


 31 31  0  0  0  0  0  0  0  0999 V2000
  -87.5027   30.7041   -0.9111 C   0  0  0  0  0  0  0  0  0  0  0  0
  -87.2912   31.0777   -2.3045 N   0  0  0  0  0  0  0  0  0  0  0  0
  -88.0748   32.1072   -2.8757 C   0  0  0  0  0  0  0  0  0  0  0  0
  -88.9594   32.7041   -2.1791 O   0  0  0  0  0  0  0  0  0  0  0  0
  -87.8913   32.4842   -4.2085 N   0  0  0  0  0  0  0  0  0  0  0  0
  -86.5837   30.5948   -2.8501 H   0  0  0  0  0  0  0  0  0  0  0  0
  -87.1332   31.9287   -4.7260 H   0  0  0  0  0  0  0  0  0  0  0  0
  -88.5634   33.4887   -4.9398 C   0  0  0  0  0  0  0  0  0  0  0  0
  -89.7850   33.3632   -5.5422 C   0  0  0  0  0  0  0  0  0  0  0  0
  -90.3712   34.4143   -6.2709 C   0  0  0  0  0  0  0  0  0  0  0  0
  -89.7391   35.6235   -6.4110 C   0  0  0  0  0  0  0  0  0  0  0  0
  -90.5372   37.0509   -7.4019 Br  0  0  0  0  0  0  0  0  0  0  0  0
  -88.5137   35.7642   -5.8120 C   0  0  0  0  0  0  0  0  0  0  0  0
  -87.9405   34.7385   -5.1006 C   0  0  0  0  0  0  0  0  0  0  0  0
  -85.2176   30.7532    0.1196 N   0  0  0  0  0  0  0  0  0  0  0  0
  -86.4767   31.3950   -0.1300 C   0  0  0  0  0  0  0  0  0  0  0  0
  -86.6949   32.5603    0.3406 O   0  0  0  0  0  0  0  0  0  0  0  0
  -85.0707   29.8094   -0.2877 H   0  0  0  0  0  0  0  0  0  0  0  0
  -84.1922   31.3977    0.9094 C   0  0  0  0  0  0  0  0  0  0  0  0
  -83.3256   32.2111    0.0225 C   0  0  0  0  0  0  0  0  0  0  0  0
  -81.9096   32.2360    0.2654 N   0  0  0  0  0  0  0  0  0  0  0  0
  -83.7420   32.8838   -0.9310 O   0  0  0  0  0  0  0  0  0  0  0  0
  -81.5900   32.0678    1.2337 H   0  0  0  0  0  0  0  0  0  0  0  0
  -81.2176   32.4163   -0.4993 H   0  0  0  0  0  0  0  0  0  0  0  0
  -83.3463   30.3766    1.6085 C   0  0  0  0  0  0  0  0  0  0  0  0
  -85.1888   29.5673    3.1566 C   0  0  0  0  0  0  0  0  0  0  0  0
  -84.0119   29.2692    2.3088 C   0  0  0  0  0  0  0  0  0  0  0  0
  -87.6575   29.2487   -0.7549 C   0  0  0  0  0  0  0  0  0  0  0  0
  -88.9549   28.5976   -0.9419 C   0  0  0  0  0  0  0  0  0  0  0  0
  -89.4510   28.1029    0.4520 C   0  0  0  0  0  0  0  0  0  0  0  0
  -88.9614   27.3425   -1.7691 C   0  0  0  0  0  0  0  0  0  0  0  0
 26 27  1  0  0  0
 27 25  1  0  0  0
 25 19  1  0  0  0
 19 15  1  0  0  0
 15 16  1  0  0  0
 16 17  2  0  0  0
 16  1  1  0  0  0
  1 28  1  0  0  0
 28 29  1  0  0  0
 29 30  1  0  0  0
 29 31  1  0  0  0
  1  2  1  0  0  0
  2  3  1  0  0  0
  3  4  2  0  0  0
  3  5  1  0  0  0
  5  8  1  0  0  0
  8  9  2  0  0  0
  9 10  1  0  0  0
 10 11  2  0  0  0
 11 12  1  0  0  0
 11 13  1  0  0  0
 13 14  2  0  0  0
 19 20  1  0  0  0
 20 21  1  0  0  0
 20 22  2  0  0  0
 14  8  1  0  0  0
 15 18  1  0  0  0
  2  6  1  0  0  0
  5  7  1  0  0  0
 21 23  1  0  0  0
 21 24  1  0  0  0
M  END
> <minimizedAffinity>
-6.32234

> <CNNscore>
0.3024678230

> <CNNaffinity>
6.0769019127

> <CNN_VS>
1.8380672932

> <CNNaffinity_variance>
0.1920934469

$$$$
[H]c1c([H])c(N([H])C(=O)N([H])[C@]([H])(C(=O)N([H])[C@]([H])(C(=O)N([H])[H])C([H])([H])C([H])([H])C([H])([H])[H])C([H])([H])C([H])(C([H])([H])[H])C([H])([H])[H])c([H])c([H])c1Br


 31 31  0  0  0  0  0  0  0  0999 V2000
  -87.4070   28.8191   -1.1899 C   0  0  0  0  0  0  0  0  0  0  0  0
  -87.6645   27.5382   -1.8370 N   0  0  0  0  0  0  0  0  0  0  0  0
  -88.6479   26.6736   -1.3026 C   0  0  0  0  0  0  0  0  0  0  0  0
  -89.3043   27.0103   -0.2634 O   0  0  0  0  0  0  0  0  0  0  0  0
  -88.9137   25.4410   -1.9043 N   0  0  0  0  0  0  0  0  0  0  0  0
  -87.1349   27.2803   -2.6644 H   0  0  0  0  0  0  0  0  0  0  0  0
  -88.3139   25.2310   -2.7687 H   0  0  0  0  0  0  0  0  0  0  0  0
  -89.8586   24.4617   -1.5250 C   0  0  0  0  0  0  0  0  0  0  0  0
  -89.6781   23.4969   -0.5724 C   0  0  0  0  0  0  0  0  0  0  0  0
  -90.6706   22.5456   -0.2737 C   0  0  0  0  0  0  0  0  0  0  0  0
  -91.8753   22.5427   -0.9295 C   0  0  0  0  0  0  0  0  0  0  0  0
  -93.2231   21.2488   -0.5224 Br  0  0  0  0  0  0  0  0  0  0  0  0
  -92.0708   23.5045   -1.8871 C   0  0  0  0  0  0  0  0  0  0  0  0
  -91.1023   24.4335   -2.1795 C   0  0  0  0  0  0  0  0  0  0  0  0
  -87.5549   31.2390   -1.8292 N   0  0  0  0  0  0  0  0  0  0  0  0
  -87.6525   29.8544   -2.1939 C   0  0  0  0  0  0  0  0  0  0  0  0
  -87.9629   29.5375   -3.3898 O   0  0  0  0  0  0  0  0  0  0  0  0
  -87.2898   31.4600   -0.8499 H   0  0  0  0  0  0  0  0  0  0  0  0
  -87.8165   32.2868   -2.7906 C   0  0  0  0  0  0  0  0  0  0  0  0
  -86.9017   33.4264   -2.5385 C   0  0  0  0  0  0  0  0  0  0  0  0
  -86.4705   34.2313   -3.6480 N   0  0  0  0  0  0  0  0  0  0  0  0
  -86.4740   33.7409   -1.4190 O   0  0  0  0  0  0  0  0  0  0  0  0
  -86.4399   33.7819   -4.5781 H   0  0  0  0  0  0  0  0  0  0  0  0
  -86.1952   35.2347   -3.5329 H   0  0  0  0  0  0  0  0  0  0  0  0
  -89.2316   32.7672   -2.6739 C   0  0  0  0  0  0  0  0  0  0  0  0
  -89.8112   32.8703   -5.1437 C   0  0  0  0  0  0  0  0  0  0  0  0
  -89.8236   33.4985   -3.8029 C   0  0  0  0  0  0  0  0  0  0  0  0
  -86.1243   28.8166   -0.4679 C   0  0  0  0  0  0  0  0  0  0  0  0
  -86.0750   28.8333    0.9947 C   0  0  0  0  0  0  0  0  0  0  0  0
  -84.6824   29.3908    1.4235 C   0  0  0  0  0  0  0  0  0  0  0  0
  -86.1316   27.4976    1.6821 C   0  0  0  0  0  0  0  0  0  0  0  0
 26 27  1  0  0  0
 27 25  1  0  0  0
 25 19  1  0  0  0
 19 15  1  0  0  0
 15 16  1  0  0  0
 16 17  2  0  0  0
 16  1  1  0  0  0
  1 28  1  0  0  0
 28 29  1  0  0  0
 29 30  1  0  0  0
 29 31  1  0  0  0
  1  2  1  0  0  0
  2  3  1  0  0  0
  3  4  2  0  0  0
  3  5  1  0  0  0
  5  8  1  0  0  0
  8  9  2  0  0  0
  9 10  1  0  0  0
 10 11  2  0  0  0
 11 12  1  0  0  0
 11 13  1  0  0  0
 13 14  2  0  0  0
 19 20  1  0  0  0
 20 21  1  0  0  0
 20 22  2  0  0  0
 14  8  1  0  0  0
 15 18  1  0  0  0
  2  6  1  0  0  0
  5  7  1  0  0  0
 21 23  1  0  0  0
 21 24  1  0  0  0
M  END
> <minimizedAffinity>
-6.45356

> <CNNscore>
0.2673261762

> <CNNaffinity>
5.6251368523

> <CNN_VS>
1.5037462711

> <CNNaffinity_variance>
0.2901985049

$$$$
[H]c1c([H])c(N([H])C(=O)N([H])[C@]([H])(C(=O)N([H])[C@]([H])(C(=O)N([H])[H])C([H])([H])C([H])([H])C([H])([H])[H])C([H])([H])C([H])(C([H])([H])[H])C([H])([H])[H])c([H])c([H])c1Br


 31 31  0  0  0  0  0  0  0  0999 V2000
  -86.2104   31.0358   -0.2801 C   0  0  0  0  0  0  0  0  0  0  0  0
  -86.9974   32.2409   -0.5129 N   0  0  0  0  0  0  0  0  0  0  0  0
  -87.2166   32.6839   -1.8380 C   0  0  0  0  0  0  0  0  0  0  0  0
  -86.7304   32.0357   -2.8217 O   0  0  0  0  0  0  0  0  0  0  0  0
  -87.9676   33.8353   -2.0878 N   0  0  0  0  0  0  0  0  0  0  0  0
  -87.3796   32.7495    0.2787 H   0  0  0  0  0  0  0  0  0  0  0  0
  -88.3344   34.3252   -1.2066 H   0  0  0  0  0  0  0  0  0  0  0  0
  -88.2998   34.4171   -3.3314 C   0  0  0  0  0  0  0  0  0  0  0  0
  -87.4146   34.9089   -4.2509 C   0  0  0  0  0  0  0  0  0  0  0  0
  -87.8377   35.4926   -5.4590 C   0  0  0  0  0  0  0  0  0  0  0  0
  -89.1691   35.5952   -5.7729 C   0  0  0  0  0  0  0  0  0  0  0  0
  -89.7425   36.3890   -7.4153 Br  0  0  0  0  0  0  0  0  0  0  0  0
  -90.0684   35.1060   -4.8608 C   0  0  0  0  0  0  0  0  0  0  0  0
  -89.6561   34.5362   -3.6809 C   0  0  0  0  0  0  0  0  0  0  0  0
  -86.6791   28.6587    0.3647 N   0  0  0  0  0  0  0  0  0  0  0  0
  -87.1615   29.9596   -0.0019 C   0  0  0  0  0  0  0  0  0  0  0  0
  -88.4172   30.1644   -0.0919 O   0  0  0  0  0  0  0  0  0  0  0  0
  -85.6513   28.5310    0.4387 H   0  0  0  0  0  0  0  0  0  0  0  0
  -87.5914   27.5666    0.6210 C   0  0  0  0  0  0  0  0  0  0  0  0
  -87.0907   26.7640    1.7631 C   0  0  0  0  0  0  0  0  0  0  0  0
  -88.0175   25.9523    2.5027 N   0  0  0  0  0  0  0  0  0  0  0  0
  -85.9085   26.7422    2.1331 O   0  0  0  0  0  0  0  0  0  0  0  0
  -89.0061   26.2533    2.5183 H   0  0  0  0  0  0  0  0  0  0  0  0
  -87.7168   25.0876    3.0103 H   0  0  0  0  0  0  0  0  0  0  0  0
  -87.7022   26.6795   -0.5822 C   0  0  0  0  0  0  0  0  0  0  0  0
  -89.4416   25.1793   -1.6641 C   0  0  0  0  0  0  0  0  0  0  0  0
  -89.0132   26.5283   -1.2289 C   0  0  0  0  0  0  0  0  0  0  0  0
  -85.1110   31.2780    0.6682 C   0  0  0  0  0  0  0  0  0  0  0  0
  -83.7556   30.7952    0.4003 C   0  0  0  0  0  0  0  0  0  0  0  0
  -83.2993   29.9381    1.6214 C   0  0  0  0  0  0  0  0  0  0  0  0
  -82.6801   31.8405    0.2991 C   0  0  0  0  0  0  0  0  0  0  0  0
 26 27  1  0  0  0
 27 25  1  0  0  0
 25 19  1  0  0  0
 19 15  1  0  0  0
 15 16  1  0  0  0
 16 17  2  0  0  0
 16  1  1  0  0  0
  1 28  1  0  0  0
 28 29  1  0  0  0
 29 30  1  0  0  0
 29 31  1  0  0  0
  1  2  1  0  0  0
  2  3  1  0  0  0
  3  4  2  0  0  0
  3  5  1  0  0  0
  5  8  1  0  0  0
  8  9  2  0  0  0
  9 10  1  0  0  0
 10 11  2  0  0  0
 11 12  1  0  0  0
 11 13  1  0  0  0
 13 14  2  0  0  0
 19 20  1  0  0  0
 20 21  1  0  0  0
 20 22  2  0  0  0
 14  8  1  0  0  0
 15 18  1  0  0  0
  2  6  1  0  0  0
  5  7  1  0  0  0
 21 23  1  0  0  0
 21 24  1  0  0  0
M  END
> <minimizedAffinity>
-6.83398

> <CNNscore>
0.1946717501

> <CNNaffinity>
6.0061717033

> <CNN_VS>
1.1692320108

> <CNNaffinity_variance>
0.1229861602

$$$$
[H]c1c([H])c(N([H])C(=O)N([H])[C@]([H])(C(=O)N([H])[C@]([H])(C(=O)N([H])[H])C([H])([H])C([H])([H])C([H])([H])[H])C([H])([H])C([H])(C([H])([H])[H])C([H])([H])[H])c([H])c([H])c1Br


 31 31  0  0  0  0  0  0  0  0999 V2000
  -86.9857   31.0122   -0.1696 C   0  0  0  0  0  0  0  0  0  0  0  0
  -86.8501   29.6838   -0.7550 N   0  0  0  0  0  0  0  0  0  0  0  0
  -87.8772   28.7305   -0.5633 C   0  0  0  0  0  0  0  0  0  0  0  0
  -88.9133   29.0291    0.1158 O   0  0  0  0  0  0  0  0  0  0  0  0
  -87.7714   27.4509   -1.1142 N   0  0  0  0  0  0  0  0  0  0  0  0
  -86.0198   29.4570   -1.2940 H   0  0  0  0  0  0  0  0  0  0  0  0
  -86.8668   27.2785   -1.6646 H   0  0  0  0  0  0  0  0  0  0  0  0
  -88.6922   26.3821   -1.0410 C   0  0  0  0  0  0  0  0  0  0  0  0
  -89.6563   26.0870   -1.9654 C   0  0  0  0  0  0  0  0  0  0  0  0
  -90.5474   25.0110   -1.7995 C   0  0  0  0  0  0  0  0  0  0  0  0
  -90.4889   24.2014   -0.6938 C   0  0  0  0  0  0  0  0  0  0  0  0
  -91.7010   22.7395   -0.4698 Br  0  0  0  0  0  0  0  0  0  0  0  0
  -89.5271   24.4849    0.2414 C   0  0  0  0  0  0  0  0  0  0  0  0
  -88.6569   25.5353    0.0804 C   0  0  0  0  0  0  0  0  0  0  0  0
  -87.6195   31.7535   -2.4794 N   0  0  0  0  0  0  0  0  0  0  0  0
  -87.8531   31.7793   -1.0637 C   0  0  0  0  0  0  0  0  0  0  0  0
  -88.8104   32.4800   -0.5950 O   0  0  0  0  0  0  0  0  0  0  0  0
  -86.8383   31.1641   -2.8264 H   0  0  0  0  0  0  0  0  0  0  0  0
  -88.4420   32.5205   -3.3881 C   0  0  0  0  0  0  0  0  0  0  0  0
  -88.5907   31.7787   -4.6636 C   0  0  0  0  0  0  0  0  0  0  0  0
  -89.5881   32.2067   -5.6054 N   0  0  0  0  0  0  0  0  0  0  0  0
  -87.9042   30.7979   -4.9823 O   0  0  0  0  0  0  0  0  0  0  0  0
  -90.4169   32.6971   -5.2305 H   0  0  0  0  0  0  0  0  0  0  0  0
  -89.4916   32.0351   -6.6336 H   0  0  0  0  0  0  0  0  0  0  0  0
  -87.8127   33.8510   -3.6726 C   0  0  0  0  0  0  0  0  0  0  0  0
  -87.9060   36.3683   -3.3551 C   0  0  0  0  0  0  0  0  0  0  0  0
  -88.6073   35.0680   -3.4555 C   0  0  0  0  0  0  0  0  0  0  0  0
  -85.6804   31.5748    0.2126 C   0  0  0  0  0  0  0  0  0  0  0  0
  -84.6762   30.7647    0.9036 C   0  0  0  0  0  0  0  0  0  0  0  0
  -84.7781   31.0701    2.4301 C   0  0  0  0  0  0  0  0  0  0  0  0
  -83.2380   31.0715    0.5918 C   0  0  0  0  0  0  0  0  0  0  0  0
 26 27  1  0  0  0
 27 25  1  0  0  0
 25 19  1  0  0  0
 19 15  1  0  0  0
 15 16  1  0  0  0
 16 17  2  0  0  0
 16  1  1  0  0  0
  1 28  1  0  0  0
 28 29  1  0  0  0
 29 30  1  0  0  0
 29 31  1  0  0  0
  1  2  1  0  0  0
  2  3  1  0  0  0
  3  4  2  0  0  0
  3  5  1  0  0  0
  5  8  1  0  0  0
  8  9  2  0  0  0
  9 10  1  0  0  0
 10 11  2  0  0  0
 11 12  1  0  0  0
 11 13  1  0  0  0
 13 14  2  0  0  0
 19 20  1  0  0  0
 20 21  1  0  0  0
 20 22  2  0  0  0
 14  8  1  0  0  0
 15 18  1  0  0  0
  2  6  1  0  0  0
  5  7  1  0  0  0
 21 23  1  0  0  0
 21 24  1  0  0  0
M  END
> <minimizedAffinity>
-6.99069

> <CNNscore>
0.1715945154

> <CNNaffinity>
5.6054430008

> <CNN_VS>
0.9618632793

> <CNNaffinity_variance>
0.3364040256

$$$$
[H]c1c([H])c(N([H])C(=O)N([H])[C@]([H])(C(=O)N([H])[C@]([H])(C(=O)N([H])[H])C([H])([H])C([H])([H])C([H])([H])[H])C([H])([H])C([H])(C([H])([H])[H])C([H])([H])[H])c([H])c([H])c1Br


 31 31  0  0  0  0  0  0  0  0999 V2000
  -90.5509   23.8940    0.4209 C   0  0  0  0  0  0  0  0  0  0  0  0
  -89.1482   24.2435    0.2311 N   0  0  0  0  0  0  0  0  0  0  0  0
  -88.6926   25.5266    0.6138 C   0  0  0  0  0  0  0  0  0  0  0  0
  -89.5010   26.3716    1.1203 O   0  0  0  0  0  0  0  0  0  0  0  0
  -87.3533   25.8857    0.4428 N   0  0  0  0  0  0  0  0  0  0  0  0
  -88.5132   23.5621   -0.1738 H   0  0  0  0  0  0  0  0  0  0  0  0
  -86.7417   25.1211    0.0043 H   0  0  0  0  0  0  0  0  0  0  0  0
  -86.7192   27.1038    0.7745 C   0  0  0  0  0  0  0  0  0  0  0  0
  -86.9440   28.3150    0.1799 C   0  0  0  0  0  0  0  0  0  0  0  0
  -86.2484   29.4766    0.5622 C   0  0  0  0  0  0  0  0  0  0  0  0
  -85.3053   29.4472    1.5577 C   0  0  0  0  0  0  0  0  0  0  0  0
  -84.3606   31.0269    2.0759 Br  0  0  0  0  0  0  0  0  0  0  0  0
  -85.0695   28.2398    2.1633 C   0  0  0  0  0  0  0  0  0  0  0  0
  -85.7480   27.1052    1.7906 C   0  0  0  0  0  0  0  0  0  0  0  0
  -89.6479   21.6584    1.1089 N   0  0  0  0  0  0  0  0  0  0  0  0
  -90.5784   22.7323    1.3097 C   0  0  0  0  0  0  0  0  0  0  0  0
  -91.4297   22.6604    2.2569 O   0  0  0  0  0  0  0  0  0  0  0  0
  -88.9623   21.7556    0.3351 H   0  0  0  0  0  0  0  0  0  0  0  0
  -89.6654   20.4847    1.9531 C   0  0  0  0  0  0  0  0  0  0  0  0
  -90.9334   19.7452    1.7425 C   0  0  0  0  0  0  0  0  0  0  0  0
  -91.1763   19.1295    0.4671 N   0  0  0  0  0  0  0  0  0  0  0  0
  -91.8156   19.6173    2.6029 O   0  0  0  0  0  0  0  0  0  0  0  0
  -90.7164   19.5480   -0.3584 H   0  0  0  0  0  0  0  0  0  0  0  0
  -91.7925   18.2896    0.3638 H   0  0  0  0  0  0  0  0  0  0  0  0
  -89.5661   20.8735    3.3975 C   0  0  0  0  0  0  0  0  0  0  0  0
  -88.0800   20.7037    5.4491 C   0  0  0  0  0  0  0  0  0  0  0  0
  -88.7387   20.0533    4.2934 C   0  0  0  0  0  0  0  0  0  0  0  0
  -91.2740   23.8287   -0.8595 C   0  0  0  0  0  0  0  0  0  0  0  0
  -92.3451   22.8559   -1.0791 C   0  0  0  0  0  0  0  0  0  0  0  0
  -92.4659   22.6108   -2.6152 C   0  0  0  0  0  0  0  0  0  0  0  0
  -93.7323   23.2888   -0.6948 C   0  0  0  0  0  0  0  0  0  0  0  0
 26 27  1  0  0  0
 27 25  1  0  0  0
 25 19  1  0  0  0
 19 15  1  0  0  0
 15 16  1  0  0  0
 16 17  2  0  0  0
 16  1  1  0  0  0
  1 28  1  0  0  0
 28 29  1  0  0  0
 29 30  1  0  0  0
 29 31  1  0  0  0
  1  2  1  0  0  0
  2  3  1  0  0  0
  3  4  2  0  0  0
  3  5  1  0  0  0
  5  8  1  0  0  0
  8  9  2  0  0  0
  9 10  1  0  0  0
 10 11  2  0  0  0
 11 12  1  0  0  0
 11 13  1  0  0  0
 13 14  2  0  0  0
 19 20  1  0  0  0
 20 21  1  0  0  0
 20 22  2  0  0  0
 14  8  1  0  0  0
 15 18  1  0  0  0
  2  6  1  0  0  0
  5  7  1  0  0  0
 21 23  1  0  0  0
 21 24  1  0  0  0
M  END
> <minimizedAffinity>
-6.96967

> <CNNscore>
0.1657490134

> <CNNaffinity>
5.2771463394

> <CNN_VS>
0.8746817708

> <CNNaffinity_variance>
0.1466355324

$$$$
[H]c1c([H])c(N([H])C(=O)N([H])[C@]([H])(C(=O)N([H])[C@]([H])(C(=O)N([H])[H])C([H])([H])C([H])([H])C([H])([H])[H])C([H])([H])C([H])(C([H])([H])[H])C([H])([H])[H])c([H])c([H])c1Br


 31 31  0  0  0  0  0  0  0  0999 V2000
  -86.8309   29.1039    0.2027 C   0  0  0  0  0  0  0  0  0  0  0  0
  -87.1358   28.2644   -0.9497 N   0  0  0  0  0  0  0  0  0  0  0  0
  -88.3008   27.4627   -0.9381 C   0  0  0  0  0  0  0  0  0  0  0  0
  -89.0786   27.4728    0.0713 O   0  0  0  0  0  0  0  0  0  0  0  0
  -88.6155   26.6500   -2.0302 N   0  0  0  0  0  0  0  0  0  0  0  0
  -86.5084   28.2642   -1.7484 H   0  0  0  0  0  0  0  0  0  0  0  0
  -87.9069   26.6941   -2.8345 H   0  0  0  0  0  0  0  0  0  0  0  0
  -89.7309   25.8003   -2.2027 C   0  0  0  0  0  0  0  0  0  0  0  0
  -89.8211   24.4988   -1.7917 C   0  0  0  0  0  0  0  0  0  0  0  0
  -90.9680   23.7182   -2.0257 C   0  0  0  0  0  0  0  0  0  0  0  0
  -92.0576   24.2316   -2.6820 C   0  0  0  0  0  0  0  0  0  0  0  0
  -93.6154   23.1692   -2.9995 Br  0  0  0  0  0  0  0  0  0  0  0  0
  -91.9817   25.5354   -3.0997 C   0  0  0  0  0  0  0  0  0  0  0  0
  -90.8624   26.2981   -2.8719 C   0  0  0  0  0  0  0  0  0  0  0  0
  -86.3292   31.3961   -0.6807 N   0  0  0  0  0  0  0  0  0  0  0  0
  -87.2687   30.4581   -0.1357 C   0  0  0  0  0  0  0  0  0  0  0  0
  -88.4773   30.8166    0.0587 O   0  0  0  0  0  0  0  0  0  0  0  0
  -85.3567   31.0666   -0.8354 H   0  0  0  0  0  0  0  0  0  0  0  0
  -86.7231   32.7497   -1.0018 C   0  0  0  0  0  0  0  0  0  0  0  0
  -87.0731   32.8329   -2.4404 C   0  0  0  0  0  0  0  0  0  0  0  0
  -87.0140   34.1090   -3.0984 N   0  0  0  0  0  0  0  0  0  0  0  0
  -87.4195   31.8633   -3.1295 O   0  0  0  0  0  0  0  0  0  0  0  0
  -87.1538   34.9513   -2.5161 H   0  0  0  0  0  0  0  0  0  0  0  0
  -86.8370   34.1966   -4.1264 H   0  0  0  0  0  0  0  0  0  0  0  0
  -85.6027   33.7050   -0.7203 C   0  0  0  0  0  0  0  0  0  0  0  0
  -83.3374   32.7721   -0.0532 C   0  0  0  0  0  0  0  0  0  0  0  0
  -84.2354   33.3189   -1.0961 C   0  0  0  0  0  0  0  0  0  0  0  0
  -85.4527   28.8982    0.6770 C   0  0  0  0  0  0  0  0  0  0  0  0
  -84.8897   29.7137    1.7540 C   0  0  0  0  0  0  0  0  0  0  0  0
  -83.3577   29.4271    1.8247 C   0  0  0  0  0  0  0  0  0  0  0  0
  -85.3579   29.3990    3.1473 C   0  0  0  0  0  0  0  0  0  0  0  0
 26 27  1  0  0  0
 27 25  1  0  0  0
 25 19  1  0  0  0
 19 15  1  0  0  0
 15 16  1  0  0  0
 16 17  2  0  0  0
 16  1  1  0  0  0
  1 28  1  0  0  0
 28 29  1  0  0  0
 29 30  1  0  0  0
 29 31  1  0  0  0
  1  2  1  0  0  0
  2  3  1  0  0  0
  3  4  2  0  0  0
  3  5  1  0  0  0
  5  8  1  0  0  0
  8  9  2  0  0  0
  9 10  1  0  0  0
 10 11  2  0  0  0
 11 12  1  0  0  0
 11 13  1  0  0  0
 13 14  2  0  0  0
 19 20  1  0  0  0
 20 21  1  0  0  0
 20 22  2  0  0  0
 14  8  1  0  0  0
 15 18  1  0  0  0
  2  6  1  0  0  0
  5  7  1  0  0  0
 21 23  1  0  0  0
 21 24  1  0  0  0
M  END
> <minimizedAffinity>
-6.98492

> <CNNscore>
0.1644461751

> <CNNaffinity>
5.3918428421

> <CNN_VS>
0.8866679072

> <CNNaffinity_variance>
0.4482541680

$$$$
[H]c1c([H])c(N([H])C(=O)N([H])[C@]([H])(C(=O)N([H])[C@]([H])(C(=O)N([H])[H])C([H])([H])C([H])([H])C([H])([H])[H])C([H])([H])C([H])(C([H])([H])[H])C([H])([H])[H])c([H])c([H])c1Br


 31 31  0  0  0  0  0  0  0  0999 V2000
  -88.3855   29.7364   -0.4009 C   0  0  0  0  0  0  0  0  0  0  0  0
  -88.4226   30.4133   -1.6917 N   0  0  0  0  0  0  0  0  0  0  0  0
  -88.5106   31.8242   -1.7355 C   0  0  0  0  0  0  0  0  0  0  0  0
  -88.5575   32.4996   -0.6559 O   0  0  0  0  0  0  0  0  0  0  0  0
  -88.5473   32.4966   -2.9597 N   0  0  0  0  0  0  0  0  0  0  0  0
  -88.3850   29.8647   -2.5456 H   0  0  0  0  0  0  0  0  0  0  0  0
  -88.5105   31.8553   -3.8191 H   0  0  0  0  0  0  0  0  0  0  0  0
  -88.6197   33.8870   -3.1985 C   0  0  0  0  0  0  0  0  0  0  0  0
  -87.6058   34.7874   -3.0187 C   0  0  0  0  0  0  0  0  0  0  0  0
  -87.7745   36.1626   -3.2627 C   0  0  0  0  0  0  0  0  0  0  0  0
  -88.9739   36.6675   -3.6965 C   0  0  0  0  0  0  0  0  0  0  0  0
  -89.2016   38.5370   -4.0274 Br  0  0  0  0  0  0  0  0  0  0  0  0
  -89.9996   35.7765   -3.8817 C   0  0  0  0  0  0  0  0  0  0  0  0
  -89.8358   34.4338   -3.6435 C   0  0  0  0  0  0  0  0  0  0  0  0
  -86.3916   29.2723    1.0467 N   0  0  0  0  0  0  0  0  0  0  0  0
  -87.0283   29.2152   -0.2381 C   0  0  0  0  0  0  0  0  0  0  0  0
  -86.4008   28.7186   -1.2314 O   0  0  0  0  0  0  0  0  0  0  0  0
  -86.9360   29.6733    1.8348 H   0  0  0  0  0  0  0  0  0  0  0  0
  -85.0419   28.7896    1.2358 C   0  0  0  0  0  0  0  0  0  0  0  0
  -85.0765   27.5110    1.9862 C   0  0  0  0  0  0  0  0  0  0  0  0
  -86.2727   26.7155    1.9508 N   0  0  0  0  0  0  0  0  0  0  0  0
  -84.1308   27.0704    2.6543 O   0  0  0  0  0  0  0  0  0  0  0  0
  -87.1670   27.2082    1.7913 H   0  0  0  0  0  0  0  0  0  0  0  0
  -86.2534   25.6768    2.0799 H   0  0  0  0  0  0  0  0  0  0  0  0
  -84.2308   29.7838    2.0109 C   0  0  0  0  0  0  0  0  0  0  0  0
  -82.7346   31.2963    0.6251 C   0  0  0  0  0  0  0  0  0  0  0  0
  -82.8878   30.1304    1.5251 C   0  0  0  0  0  0  0  0  0  0  0  0
  -89.5254   28.8204   -0.2332 C   0  0  0  0  0  0  0  0  0  0  0  0
  -89.8587   28.2526    1.0739 C   0  0  0  0  0  0  0  0  0  0  0  0
  -90.2364   26.7532    0.8657 C   0  0  0  0  0  0  0  0  0  0  0  0
  -91.0722   28.8158    1.7592 C   0  0  0  0  0  0  0  0  0  0  0  0
 26 27  1  0  0  0
 27 25  1  0  0  0
 25 19  1  0  0  0
 19 15  1  0  0  0
 15 16  1  0  0  0
 16 17  2  0  0  0
 16  1  1  0  0  0
  1 28  1  0  0  0
 28 29  1  0  0  0
 29 30  1  0  0  0
 29 31  1  0  0  0
  1  2  1  0  0  0
  2  3  1  0  0  0
  3  4  2  0  0  0
  3  5  1  0  0  0
  5  8  1  0  0  0
  8  9  2  0  0  0
  9 10  1  0  0  0
 10 11  2  0  0  0
 11 12  1  0  0  0
 11 13  1  0  0  0
 13 14  2  0  0  0
 19 20  1  0  0  0
 20 21  1  0  0  0
 20 22  2  0  0  0
 14  8  1  0  0  0
 15 18  1  0  0  0
  2  6  1  0  0  0
  5  7  1  0  0  0
 21 23  1  0  0  0
 21 24  1  0  0  0
M  END
> <minimizedAffinity>
-7.19049

> <CNNscore>
0.1613549292

> <CNNaffinity>
5.8498392105

> <CNN_VS>
0.9439004064

> <CNNaffinity_variance>
0.0708347112

$$$$
[H]c1c([H])c(N([H])C(=O)N([H])[C@]([H])(C(=O)N([H])[C@]([H])(C(=O)N([H])[H])C([H])([H])C([H])([H])C([H])([H])[H])C([H])([H])C([H])(C([H])([H])[H])C([H])([H])[H])c([H])c([H])c1Br


 31 31  0  0  0  0  0  0  0  0999 V2000
  -87.5938   30.5569   -1.0250 C   0  0  0  0  0  0  0  0  0  0  0  0
  -88.8657   29.8552   -0.9001 N   0  0  0  0  0  0  0  0  0  0  0  0
  -89.5029   29.3573   -2.0604 C   0  0  0  0  0  0  0  0  0  0  0  0
  -88.9706   29.5203   -3.2068 O   0  0  0  0  0  0  0  0  0  0  0  0
  -90.7219   28.6810   -1.9674 N   0  0  0  0  0  0  0  0  0  0  0  0
  -89.2807   29.7315    0.0186 H   0  0  0  0  0  0  0  0  0  0  0  0
  -91.1049   28.5926   -0.9691 H   0  0  0  0  0  0  0  0  0  0  0  0
  -91.4918   28.1076   -3.0038 C   0  0  0  0  0  0  0  0  0  0  0  0
  -92.2342   28.7919   -3.9266 C   0  0  0  0  0  0  0  0  0  0  0  0
  -92.9901   28.1348   -4.9146 C   0  0  0  0  0  0  0  0  0  0  0  0
  -93.0168   26.7660   -4.9985 C   0  0  0  0  0  0  0  0  0  0  0  0
  -94.0449   25.8745   -6.3418 Br  0  0  0  0  0  0  0  0  0  0  0  0
  -92.2770   26.0665   -4.0801 C   0  0  0  0  0  0  0  0  0  0  0  0
  -91.5389   26.7072   -3.1150 C   0  0  0  0  0  0  0  0  0  0  0  0
  -85.6831   30.0696    0.5236 N   0  0  0  0  0  0  0  0  0  0  0  0
  -86.5609   29.6467   -0.5301 C   0  0  0  0  0  0  0  0  0  0  0  0
  -86.4266   28.4826   -1.0339 O   0  0  0  0  0  0  0  0  0  0  0  0
  -85.8281   31.0194    0.9172 H   0  0  0  0  0  0  0  0  0  0  0  0
  -84.6354   29.2043    1.0179 C   0  0  0  0  0  0  0  0  0  0  0  0
  -85.1508   28.4086    2.1583 C   0  0  0  0  0  0  0  0  0  0  0  0
  -85.8301   27.1706    1.8925 N   0  0  0  0  0  0  0  0  0  0  0  0
  -85.0359   28.7402    3.3465 O   0  0  0  0  0  0  0  0  0  0  0  0
  -86.3074   27.0762    0.9807 H   0  0  0  0  0  0  0  0  0  0  0  0
  -85.8488   26.3868    2.5861 H   0  0  0  0  0  0  0  0  0  0  0  0
  -83.4611   30.0117    1.4827 C   0  0  0  0  0  0  0  0  0  0  0  0
  -82.5860   32.0126    0.1877 C   0  0  0  0  0  0  0  0  0  0  0  0
  -83.4640   31.4620    1.2454 C   0  0  0  0  0  0  0  0  0  0  0  0
  -87.6669   31.9194   -0.4730 C   0  0  0  0  0  0  0  0  0  0  0  0
  -87.1973   33.0757   -1.2376 C   0  0  0  0  0  0  0  0  0  0  0  0
  -87.2095   32.6908   -2.7494 C   0  0  0  0  0  0  0  0  0  0  0  0
  -85.7731   33.4978   -1.0067 C   0  0  0  0  0  0  0  0  0  0  0  0
 26 27  1  0  0  0
 27 25  1  0  0  0
 25 19  1  0  0  0
 19 15  1  0  0  0
 15 16  1  0  0  0
 16 17  2  0  0  0
 16  1  1  0  0  0
  1 28  1  0  0  0
 28 29  1  0  0  0
 29 30  1  0  0  0
 29 31  1  0  0  0
  1  2  1  0  0  0
  2  3  1  0  0  0
  3  4  2  0  0  0
  3  5  1  0  0  0
  5  8  1  0  0  0
  8  9  2  0  0  0
  9 10  1  0  0  0
 10 11  2  0  0  0
 11 12  1  0  0  0
 11 13  1  0  0  0
 13 14  2  0  0  0
 19 20  1  0  0  0
 20 21  1  0  0  0
 20 22  2  0  0  0
 14  8  1  0  0  0
 15 18  1  0  0  0
  2  6  1  0  0  0
  5  7  1  0  0  0
 21 23  1  0  0  0
 21 24  1  0  0  0
M  END
> <minimizedAffinity>
-6.85435

> <CNNscore>
0.1578614116

> <CNNaffinity>
5.6322431564

> <CNN_VS>
0.8891138434

> <CNNaffinity_variance>
0.1393036544

$$$$
[H]OC(C([H])([H])[H])(C([H])([H])[H])C([H])([H])C(=O)N([H])C([H])([H])C([H])([H])c1c([H])c([H])c2nc([H])nc(N([H])c3c([H])c([H])c(Oc4c([H])c([H])c([H])c(C(F)(F)F)c4[H])c(Cl)c3[H])c2c1[H]


 42 45  0  0  0  0  0  0  0  0999 V2000
  -85.1994   28.8812    1.9753 C   0  0  0  0  0  0  0  0  0  0  0  0
  -83.8541   28.7758    2.1887 C   0  0  0  0  0  0  0  0  0  0  0  0
  -82.9942   29.7033    1.6875 C   0  0  0  0  0  0  0  0  0  0  0  0
  -83.4502   30.7815    0.9414 C   0  0  0  0  0  0  0  0  0  0  0  0
  -82.5356   31.6506    0.4660 N   0  0  0  0  0  0  0  0  0  0  0  0
  -82.9570   32.6866   -0.2731 C   0  0  0  0  0  0  0  0  0  0  0  0
  -84.2632   32.7834   -0.4888 N   0  0  0  0  0  0  0  0  0  0  0  0
  -85.2213   31.9773   -0.0593 C   0  0  0  0  0  0  0  0  0  0  0  0
  -84.8061   30.8900    0.7193 C   0  0  0  0  0  0  0  0  0  0  0  0
  -85.6753   29.9749    1.2169 C   0  0  0  0  0  0  0  0  0  0  0  0
  -86.5753   32.1338   -0.4061 N   0  0  0  0  0  0  0  0  0  0  0  0
  -87.3603   31.7812    0.1993 H   0  0  0  0  0  0  0  0  0  0  0  0
  -86.9939   32.7714   -1.6036 C   0  0  0  0  0  0  0  0  0  0  0  0
  -86.8340   34.0927   -1.8837 C   0  0  0  0  0  0  0  0  0  0  0  0
  -87.1678   34.6383   -3.1267 C   0  0  0  0  0  0  0  0  0  0  0  0
  -87.6912   33.8129   -4.1377 C   0  0  0  0  0  0  0  0  0  0  0  0
  -87.8650   32.4743   -3.8715 C   0  0  0  0  0  0  0  0  0  0  0  0
  -88.5421   31.3742   -5.0879 Cl  0  0  0  0  0  0  0  0  0  0  0  0
  -87.5173   31.9902   -2.6306 C   0  0  0  0  0  0  0  0  0  0  0  0
  -87.9834   34.3979   -5.3106 O   0  0  0  0  0  0  0  0  0  0  0  0
  -88.2729   35.6307   -5.7594 C   0  0  0  0  0  0  0  0  0  0  0  0
  -89.5230   36.1828   -5.4344 C   0  0  0  0  0  0  0  0  0  0  0  0
  -89.8383   37.4359   -5.8776 C   0  0  0  0  0  0  0  0  0  0  0  0
  -88.9300   38.1411   -6.6364 C   0  0  0  0  0  0  0  0  0  0  0  0
  -87.6982   37.6285   -6.9741 C   0  0  0  0  0  0  0  0  0  0  0  0
  -87.3730   36.3744   -6.5330 C   0  0  0  0  0  0  0  0  0  0  0  0
  -86.7864   38.4473   -7.8167 C   0  0  0  0  0  0  0  0  0  0  0  0
  -86.7349   37.9081   -9.1168 F   0  0  0  0  0  0  0  0  0  0  0  0
  -87.3480   39.7008   -7.9455 F   0  0  0  0  0  0  0  0  0  0  0  0
  -85.5400   38.5633   -7.2702 F   0  0  0  0  0  0  0  0  0  0  0  0
  -86.1404   27.8920    2.4472 C   0  0  0  0  0  0  0  0  0  0  0  0
  -86.5710   26.8251    1.4611 C   0  0  0  0  0  0  0  0  0  0  0  0
  -89.0925   27.2267    0.4386 C   0  0  0  0  0  0  0  0  0  0  0  0
  -90.1331   27.4773    1.0779 O   0  0  0  0  0  0  0  0  0  0  0  0
  -87.8320   27.0258    0.9479 N   0  0  0  0  0  0  0  0  0  0  0  0
  -88.2859   27.3722    2.1903 H   0  0  0  0  0  0  0  0  0  0  0  0
  -89.2916   27.1439   -1.0571 C   0  0  0  0  0  0  0  0  0  0  0  0
  -90.3237   28.7214   -2.6379 C   0  0  0  0  0  0  0  0  0  0  0  0
  -89.1264   28.4023   -1.7983 C   0  0  0  0  0  0  0  0  0  0  0  0
  -87.8203   28.4976   -2.5693 C   0  0  0  0  0  0  0  0  0  0  0  0
  -89.0611   29.4336   -0.7946 O   0  0  0  0  0  0  0  0  0  0  0  0
  -88.5219   29.0451   -0.0541 H   0  0  0  0  0  0  0  0  0  0  0  0
 38 39  1  0  0  0
 39 40  1  0  0  0
 39 41  1  0  0  0
 39 37  1  0  0  0
 37 33  1  0  0  0
 33 34  2  0  0  0
 33 35  1  0  0  0
 35 32  1  0  0  0
 32 31  1  0  0  0
 31  1  1  0  0  0
  1  2  2  0  0  0
  2  3  1  0  0  0
  3  4  2  0  0  0
  4  5  1  0  0  0
  5  6  2  0  0  0
  6  7  1  0  0  0
  7  8  2  0  0  0
  8 11  1  0  0  0
 11 13  1  0  0  0
 13 14  2  0  0  0
 14 15  1  0  0  0
 15 16  2  0  0  0
 16 20  1  0  0  0
 20 21  1  0  0  0
 21 22  2  0  0  0
 22 23  1  0  0  0
 23 24  2  0  0  0
 24 25  1  0  0  0
 25 27  1  0  0  0
 27 28  1  0  0  0
 27 29  1  0  0  0
 27 30  1  0  0  0
 25 26  2  0  0  0
 16 17  1  0  0  0
 17 18  1  0  0  0
 17 19  2  0  0  0
  8  9  1  0  0  0
  9 10  2  0  0  0
 10  1  1  0  0  0
  9  4  1  0  0  0
 19 13  1  0  0  0
 26 21  1  0  0  0
 41 42  1  0  0  0
 35 36  1  0  0  0
 11 12  1  0  0  0
M  END
> <minimizedAffinity>
-9.31051

> <CNNscore>
0.3177800179

> <CNNaffinity>
7.3057570457

> <CNN_VS>
2.3216235638

> <CNNaffinity_variance>
0.4003651142

$$$$
[H]OC(C([H])([H])[H])(C([H])([H])[H])C([H])([H])C(=O)N([H])C([H])([H])C([H])([H])c1c([H])c([H])c2nc([H])nc(N([H])c3c([H])c([H])c(Oc4c([H])c([H])c([H])c(C(F)(F)F)c4[H])c(Cl)c3[H])c2c1[H]


 42 45  0  0  0  0  0  0  0  0999 V2000
  -85.1324   28.5553    1.8001 C   0  0  0  0  0  0  0  0  0  0  0  0
  -83.7972   28.5000    2.0840 C   0  0  0  0  0  0  0  0  0  0  0  0
  -82.9661   29.5164    1.7275 C   0  0  0  0  0  0  0  0  0  0  0  0
  -83.4420   30.6380    1.0620 C   0  0  0  0  0  0  0  0  0  0  0  0
  -82.5545   31.5968    0.7288 N   0  0  0  0  0  0  0  0  0  0  0  0
  -82.9937   32.6774    0.0682 C   0  0  0  0  0  0  0  0  0  0  0  0
  -84.2893   32.7265   -0.2163 N   0  0  0  0  0  0  0  0  0  0  0  0
  -85.2213   31.8326    0.0746 C   0  0  0  0  0  0  0  0  0  0  0  0
  -84.7874   30.6967    0.7691 C   0  0  0  0  0  0  0  0  0  0  0  0
  -85.6283   29.6924    1.1227 C   0  0  0  0  0  0  0  0  0  0  0  0
  -86.5609   31.9516   -0.3373 N   0  0  0  0  0  0  0  0  0  0  0  0
  -87.3604   31.5359    0.2058 H   0  0  0  0  0  0  0  0  0  0  0  0
  -86.9435   32.6332   -1.5226 C   0  0  0  0  0  0  0  0  0  0  0  0
  -86.7323   33.9543   -1.7683 C   0  0  0  0  0  0  0  0  0  0  0  0
  -87.0331   34.5421   -3.0004 C   0  0  0  0  0  0  0  0  0  0  0  0
  -87.5760   33.7615   -4.0364 C   0  0  0  0  0  0  0  0  0  0  0  0
  -87.8016   32.4241   -3.8052 C   0  0  0  0  0  0  0  0  0  0  0  0
  -88.5061   31.3799   -5.0547 Cl  0  0  0  0  0  0  0  0  0  0  0  0
  -87.4846   31.8973   -2.5735 C   0  0  0  0  0  0  0  0  0  0  0  0
  -87.8345   34.3855   -5.1971 O   0  0  0  0  0  0  0  0  0  0  0  0
  -88.8122   35.1450   -5.7188 C   0  0  0  0  0  0  0  0  0  0  0  0
  -90.1223   34.9645   -5.2451 C   0  0  0  0  0  0  0  0  0  0  0  0
  -91.1322   35.7273   -5.7592 C   0  0  0  0  0  0  0  0  0  0  0  0
  -90.8554   36.6611   -6.7336 C   0  0  0  0  0  0  0  0  0  0  0  0
  -89.5839   36.8613   -7.2208 C   0  0  0  0  0  0  0  0  0  0  0  0
  -88.5654   36.1027   -6.7104 C   0  0  0  0  0  0  0  0  0  0  0  0
  -89.3759   37.8738   -8.2899 C   0  0  0  0  0  0  0  0  0  0  0  0
  -89.7379   37.3251   -9.5356 F   0  0  0  0  0  0  0  0  0  0  0  0
  -90.2551   38.9120   -8.0603 F   0  0  0  0  0  0  0  0  0  0  0  0
  -88.0985   38.3571   -8.3049 F   0  0  0  0  0  0  0  0  0  0  0  0
  -86.0390   27.4762    2.1167 C   0  0  0  0  0  0  0  0  0  0  0  0
  -87.5046   27.8298    2.2688 C   0  0  0  0  0  0  0  0  0  0  0  0
  -89.2066   25.7900    1.5567 C   0  0  0  0  0  0  0  0  0  0  0  0
  -89.0306   24.9405    0.6613 O   0  0  0  0  0  0  0  0  0  0  0  0
  -88.3572   26.8097    1.9137 N   0  0  0  0  0  0  0  0  0  0  0  0
  -87.4127   26.3137    1.0585 H   0  0  0  0  0  0  0  0  0  0  0  0
  -90.5126   25.6401    2.3018 C   0  0  0  0  0  0  0  0  0  0  0  0
  -90.7795   26.5132    4.5864 C   0  0  0  0  0  0  0  0  0  0  0  0
  -90.4036   25.3399    3.7364 C   0  0  0  0  0  0  0  0  0  0  0  0
  -89.0758   24.7193    4.1379 C   0  0  0  0  0  0  0  0  0  0  0  0
  -91.3981   24.3301    3.9942 O   0  0  0  0  0  0  0  0  0  0  0  0
  -91.3692   23.7258    3.2043 H   0  0  0  0  0  0  0  0  0  0  0  0
 38 39  1  0  0  0
 39 40  1  0  0  0
 39 41  1  0  0  0
 39 37  1  0  0  0
 37 33  1  0  0  0
 33 34  2  0  0  0
 33 35  1  0  0  0
 35 32  1  0  0  0
 32 31  1  0  0  0
 31  1  1  0  0  0
  1  2  2  0  0  0
  2  3  1  0  0  0
  3  4  2  0  0  0
  4  5  1  0  0  0
  5  6  2  0  0  0
  6  7  1  0  0  0
  7  8  2  0  0  0
  8 11  1  0  0  0
 11 13  1  0  0  0
 13 14  2  0  0  0
 14 15  1  0  0  0
 15 16  2  0  0  0
 16 20  1  0  0  0
 20 21  1  0  0  0
 21 22  2  0  0  0
 22 23  1  0  0  0
 23 24  2  0  0  0
 24 25  1  0  0  0
 25 27  1  0  0  0
 27 28  1  0  0  0
 27 29  1  0  0  0
 27 30  1  0  0  0
 25 26  2  0  0  0
 16 17  1  0  0  0
 17 18  1  0  0  0
 17 19  2  0  0  0
  8  9  1  0  0  0
  9 10  2  0  0  0
 10  1  1  0  0  0
  9  4  1  0  0  0
 19 13  1  0  0  0
 26 21  1  0  0  0
 41 42  1  0  0  0
 35 36  1  0  0  0
 11 12  1  0  0  0
M  END
> <minimizedAffinity>
-9.52601

> <CNNscore>
0.2996316552

> <CNNaffinity>
7.0819578171

> <CNN_VS>
2.1219787598

> <CNNaffinity_variance>
0.1317742765

$$$$
[H]OC(C([H])([H])[H])(C([H])([H])[H])C([H])([H])C(=O)N([H])C([H])([H])C([H])([H])c1c([H])c([H])c2nc([H])nc(N([H])c3c([H])c([H])c(Oc4c([H])c([H])c([H])c(C(F)(F)F)c4[H])c(Cl)c3[H])c2c1[H]


 42 45  0  0  0  0  0  0  0  0999 V2000
  -85.5491   27.8182    1.8918 C   0  0  0  0  0  0  0  0  0  0  0  0
  -84.2528   27.7266    2.3133 C   0  0  0  0  0  0  0  0  0  0  0  0
  -83.3865   28.7600    2.1326 C   0  0  0  0  0  0  0  0  0  0  0  0
  -83.7856   29.9363    1.5127 C   0  0  0  0  0  0  0  0  0  0  0  0
  -82.8658   30.9097    1.3567 N   0  0  0  0  0  0  0  0  0  0  0  0
  -83.2292   32.0445    0.7423 C   0  0  0  0  0  0  0  0  0  0  0  0
  -84.4860   32.1295    0.3239 N   0  0  0  0  0  0  0  0  0  0  0  0
  -85.4453   31.2246    0.4386 C   0  0  0  0  0  0  0  0  0  0  0  0
  -85.0911   30.0321    1.0814 C   0  0  0  0  0  0  0  0  0  0  0  0
  -85.9668   29.0112    1.2591 C   0  0  0  0  0  0  0  0  0  0  0  0
  -86.7319   31.3899   -0.1051 N   0  0  0  0  0  0  0  0  0  0  0  0
  -87.5776   30.8950    0.2781 H   0  0  0  0  0  0  0  0  0  0  0  0
  -86.9939   32.2297   -1.2196 C   0  0  0  0  0  0  0  0  0  0  0  0
  -86.6816   33.5514   -1.2939 C   0  0  0  0  0  0  0  0  0  0  0  0
  -86.8654   34.2977   -2.4616 C   0  0  0  0  0  0  0  0  0  0  0  0
  -87.3922   33.6832   -3.6115 C   0  0  0  0  0  0  0  0  0  0  0  0
  -87.7189   32.3479   -3.5542 C   0  0  0  0  0  0  0  0  0  0  0  0
  -88.4106   31.5086   -4.9562 Cl  0  0  0  0  0  0  0  0  0  0  0  0
  -87.5151   31.6610   -2.3788 C   0  0  0  0  0  0  0  0  0  0  0  0
  -87.5359   34.4540   -4.7017 O   0  0  0  0  0  0  0  0  0  0  0  0
  -88.3552   35.4310   -5.1249 C   0  0  0  0  0  0  0  0  0  0  0  0
  -89.0321   35.2534   -6.3430 C   0  0  0  0  0  0  0  0  0  0  0  0
  -89.8723   36.2325   -6.7921 C   0  0  0  0  0  0  0  0  0  0  0  0
  -90.0450   37.3792   -6.0481 C   0  0  0  0  0  0  0  0  0  0  0  0
  -89.3955   37.5852   -4.8523 C   0  0  0  0  0  0  0  0  0  0  0  0
  -88.5530   36.6090   -4.3938 C   0  0  0  0  0  0  0  0  0  0  0  0
  -89.6204   38.8621   -4.1240 C   0  0  0  0  0  0  0  0  0  0  0  0
  -90.9196   38.8722   -3.5804 F   0  0  0  0  0  0  0  0  0  0  0  0
  -88.7566   38.8885   -3.0485 F   0  0  0  0  0  0  0  0  0  0  0  0
  -89.3959   39.9549   -4.9120 F   0  0  0  0  0  0  0  0  0  0  0  0
  -86.4862   26.7263    2.0195 C   0  0  0  0  0  0  0  0  0  0  0  0
  -87.2117   26.2904    0.7627 C   0  0  0  0  0  0  0  0  0  0  0  0
  -89.9355   26.6527    0.8841 C   0  0  0  0  0  0  0  0  0  0  0  0
  -90.6952   26.3421    1.8225 O   0  0  0  0  0  0  0  0  0  0  0  0
  -88.5745   26.4724    0.8219 N   0  0  0  0  0  0  0  0  0  0  0  0
  -88.5769   26.0541    2.1236 H   0  0  0  0  0  0  0  0  0  0  0  0
  -90.6362   27.2938   -0.2912 C   0  0  0  0  0  0  0  0  0  0  0  0
  -91.9406   29.1774   -1.1875 C   0  0  0  0  0  0  0  0  0  0  0  0
  -90.9774   28.7153   -0.1392 C   0  0  0  0  0  0  0  0  0  0  0  0
  -89.7705   29.6283   -0.0005 C   0  0  0  0  0  0  0  0  0  0  0  0
  -91.6817   28.8094    1.1139 O   0  0  0  0  0  0  0  0  0  0  0  0
  -91.2047   28.1906    1.7300 H   0  0  0  0  0  0  0  0  0  0  0  0
 38 39  1  0  0  0
 39 40  1  0  0  0
 39 41  1  0  0  0
 39 37  1  0  0  0
 37 33  1  0  0  0
 33 34  2  0  0  0
 33 35  1  0  0  0
 35 32  1  0  0  0
 32 31  1  0  0  0
 31  1  1  0  0  0
  1  2  2  0  0  0
  2  3  1  0  0  0
  3  4  2  0  0  0
  4  5  1  0  0  0
  5  6  2  0  0  0
  6  7  1  0  0  0
  7  8  2  0  0  0
  8 11  1  0  0  0
 11 13  1  0  0  0
 13 14  2  0  0  0
 14 15  1  0  0  0
 15 16  2  0  0  0
 16 20  1  0  0  0
 20 21  1  0  0  0
 21 22  2  0  0  0
 22 23  1  0  0  0
 23 24  2  0  0  0
 24 25  1  0  0  0
 25 27  1  0  0  0
 27 28  1  0  0  0
 27 29  1  0  0  0
 27 30  1  0  0  0
 25 26  2  0  0  0
 16 17  1  0  0  0
 17 18  1  0  0  0
 17 19  2  0  0  0
  8  9  1  0  0  0
  9 10  2  0  0  0
 10  1  1  0  0  0
  9  4  1  0  0  0
 19 13  1  0  0  0
 26 21  1  0  0  0
 41 42  1  0  0  0
 35 36  1  0  0  0
 11 12  1  0  0  0
M  END
> <minimizedAffinity>
-9.26741

> <CNNscore>
0.2031297386

> <CNNaffinity>
7.0648612976

> <CNN_VS>
1.4350833893

> <CNNaffinity_variance>
0.3796451688

$$$$
[H]OC(C([H])([H])[H])(C([H])([H])[H])C([H])([H])C(=O)N([H])C([H])([H])C([H])([H])c1c([H])c([H])c2nc([H])nc(N([H])c3c([H])c([H])c(Oc4c([H])c([H])c([H])c(C(F)(F)F)c4[H])c(Cl)c3[H])c2c1[H]


 42 45  0  0  0  0  0  0  0  0999 V2000
  -84.9984   31.7910    0.4304 C   0  0  0  0  0  0  0  0  0  0  0  0
  -83.6468   31.9343    0.5688 C   0  0  0  0  0  0  0  0  0  0  0  0
  -82.8971   30.9543    1.1420 C   0  0  0  0  0  0  0  0  0  0  0  0
  -83.4764   29.7821    1.6083 C   0  0  0  0  0  0  0  0  0  0  0  0
  -82.6697   28.8638    2.1776 N   0  0  0  0  0  0  0  0  0  0  0  0
  -83.2154   27.7346    2.6513 C   0  0  0  0  0  0  0  0  0  0  0  0
  -84.5300   27.5998    2.5257 N   0  0  0  0  0  0  0  0  0  0  0  0
  -85.3873   28.4491    1.9818 C   0  0  0  0  0  0  0  0  0  0  0  0
  -84.8402   29.6344    1.4754 C   0  0  0  0  0  0  0  0  0  0  0  0
  -85.5993   30.6016    0.9017 C   0  0  0  0  0  0  0  0  0  0  0  0
  -86.7776   28.2372    1.9627 N   0  0  0  0  0  0  0  0  0  0  0  0
  -87.3599   28.2132    2.8388 H   0  0  0  0  0  0  0  0  0  0  0  0
  -87.5076   28.0293    0.7628 C   0  0  0  0  0  0  0  0  0  0  0  0
  -87.1155   27.2261   -0.2624 C   0  0  0  0  0  0  0  0  0  0  0  0
  -87.9315   26.9767   -1.3698 C   0  0  0  0  0  0  0  0  0  0  0  0
  -89.2051   27.5672   -1.4502 C   0  0  0  0  0  0  0  0  0  0  0  0
  -89.6174   28.3870   -0.4251 C   0  0  0  0  0  0  0  0  0  0  0  0
  -91.2007   29.1869   -0.4662 Cl  0  0  0  0  0  0  0  0  0  0  0  0
  -88.7738   28.5961    0.6424 C   0  0  0  0  0  0  0  0  0  0  0  0
  -89.9414   27.2803   -2.5359 O   0  0  0  0  0  0  0  0  0  0  0  0
  -90.9305   26.4340   -2.8686 C   0  0  0  0  0  0  0  0  0  0  0  0
  -91.1145   25.2821   -2.0859 C   0  0  0  0  0  0  0  0  0  0  0  0
  -92.1155   24.4085   -2.4038 C   0  0  0  0  0  0  0  0  0  0  0  0
  -92.9296   24.6659   -3.4850 C   0  0  0  0  0  0  0  0  0  0  0  0
  -92.7747   25.7835   -4.2731 C   0  0  0  0  0  0  0  0  0  0  0  0
  -91.7754   26.6652   -3.9612 C   0  0  0  0  0  0  0  0  0  0  0  0
  -93.6820   25.9734   -5.4360 C   0  0  0  0  0  0  0  0  0  0  0  0
  -94.8548   26.6309   -5.0164 F   0  0  0  0  0  0  0  0  0  0  0  0
  -93.0583   26.8314   -6.3181 F   0  0  0  0  0  0  0  0  0  0  0  0
  -93.9641   24.7974   -6.0709 F   0  0  0  0  0  0  0  0  0  0  0  0
  -85.8362   32.8276   -0.1265 C   0  0  0  0  0  0  0  0  0  0  0  0
  -85.4862   33.3248   -1.5145 C   0  0  0  0  0  0  0  0  0  0  0  0
  -87.6790   33.7153   -3.1282 C   0  0  0  0  0  0  0  0  0  0  0  0
  -88.5996   34.5392   -2.9610 O   0  0  0  0  0  0  0  0  0  0  0  0
  -86.5828   33.5190   -2.3229 N   0  0  0  0  0  0  0  0  0  0  0  0
  -86.9446   34.6058   -1.5764 H   0  0  0  0  0  0  0  0  0  0  0  0
  -87.8316   32.8617   -4.3657 C   0  0  0  0  0  0  0  0  0  0  0  0
  -90.0611   31.9011   -3.9665 C   0  0  0  0  0  0  0  0  0  0  0  0
  -88.6090   31.6251   -4.2019 C   0  0  0  0  0  0  0  0  0  0  0  0
  -88.0195   30.6547   -3.1918 C   0  0  0  0  0  0  0  0  0  0  0  0
  -88.5354   30.9537   -5.4743 O   0  0  0  0  0  0  0  0  0  0  0  0
  -87.6021   31.0924   -5.7904 H   0  0  0  0  0  0  0  0  0  0  0  0
 38 39  1  0  0  0
 39 40  1  0  0  0
 39 41  1  0  0  0
 39 37  1  0  0  0
 37 33  1  0  0  0
 33 34  2  0  0  0
 33 35  1  0  0  0
 35 32  1  0  0  0
 32 31  1  0  0  0
 31  1  1  0  0  0
  1  2  2  0  0  0
  2  3  1  0  0  0
  3  4  2  0  0  0
  4  5  1  0  0  0
  5  6  2  0  0  0
  6  7  1  0  0  0
  7  8  2  0  0  0
  8 11  1  0  0  0
 11 13  1  0  0  0
 13 14  2  0  0  0
 14 15  1  0  0  0
 15 16  2  0  0  0
 16 20  1  0  0  0
 20 21  1  0  0  0
 21 22  2  0  0  0
 22 23  1  0  0  0
 23 24  2  0  0  0
 24 25  1  0  0  0
 25 27  1  0  0  0
 27 28  1  0  0  0
 27 29  1  0  0  0
 27 30  1  0  0  0
 25 26  2  0  0  0
 16 17  1  0  0  0
 17 18  1  0  0  0
 17 19  2  0  0  0
  8  9  1  0  0  0
  9 10  2  0  0  0
 10  1  1  0  0  0
  9  4  1  0  0  0
 19 13  1  0  0  0
 26 21  1  0  0  0
 41 42  1  0  0  0
 35 36  1  0  0  0
 11 12  1  0  0  0
M  END
> <minimizedAffinity>
-10.00856

> <CNNscore>
0.1862171143

> <CNNaffinity>
7.0032906532

> <CNN_VS>
1.3041325808

> <CNNaffinity_variance>
0.5651755333

$$$$
[H]OC(C([H])([H])[H])(C([H])([H])[H])C([H])([H])C(=O)N([H])C([H])([H])C([H])([H])c1c([H])c([H])c2nc([H])nc(N([H])c3c([H])c([H])c(Oc4c([H])c([H])c([H])c(C(F)(F)F)c4[H])c(Cl)c3[H])c2c1[H]


 42 45  0  0  0  0  0  0  0  0999 V2000
  -84.0920   29.7273    1.9130 C   0  0  0  0  0  0  0  0  0  0  0  0
  -82.8356   30.1283    1.5563 C   0  0  0  0  0  0  0  0  0  0  0  0
  -82.6536   31.1518    0.6786 C   0  0  0  0  0  0  0  0  0  0  0  0
  -83.7324   31.8183    0.1136 C   0  0  0  0  0  0  0  0  0  0  0  0
  -83.4718   32.8125   -0.7592 N   0  0  0  0  0  0  0  0  0  0  0  0
  -84.5020   33.4535   -1.3293 C   0  0  0  0  0  0  0  0  0  0  0  0
  -85.7226   33.0571   -0.9902 N   0  0  0  0  0  0  0  0  0  0  0  0
  -86.0613   32.0958   -0.1456 C   0  0  0  0  0  0  0  0  0  0  0  0
  -85.0020   31.4146    0.4665 C   0  0  0  0  0  0  0  0  0  0  0  0
  -85.1980   30.3986    1.3440 C   0  0  0  0  0  0  0  0  0  0  0  0
  -87.3927   31.7086    0.0901 N   0  0  0  0  0  0  0  0  0  0  0  0
  -87.7963   31.6249    1.0582 H   0  0  0  0  0  0  0  0  0  0  0  0
  -88.2980   31.3904   -0.9563 C   0  0  0  0  0  0  0  0  0  0  0  0
  -89.6387   31.2172   -0.8055 C   0  0  0  0  0  0  0  0  0  0  0  0
  -90.4925   31.0144   -1.8936 C   0  0  0  0  0  0  0  0  0  0  0  0
  -89.9704   30.9819   -3.1988 C   0  0  0  0  0  0  0  0  0  0  0  0
  -88.6158   31.1501   -3.3712 C   0  0  0  0  0  0  0  0  0  0  0  0
  -87.8797   31.0977   -4.9848 Cl  0  0  0  0  0  0  0  0  0  0  0  0
  -87.8220   31.3484   -2.2641 C   0  0  0  0  0  0  0  0  0  0  0  0
  -90.8452   30.7915   -4.1997 O   0  0  0  0  0  0  0  0  0  0  0  0
  -91.8510   29.9499   -4.4915 C   0  0  0  0  0  0  0  0  0  0  0  0
  -92.9345   30.4390   -5.2400 C   0  0  0  0  0  0  0  0  0  0  0  0
  -93.9674   29.6007   -5.5509 C   0  0  0  0  0  0  0  0  0  0  0  0
  -93.9351   28.2900   -5.1274 C   0  0  0  0  0  0  0  0  0  0  0  0
  -92.8900   27.7803   -4.3911 C   0  0  0  0  0  0  0  0  0  0  0  0
  -91.8500   28.6124   -4.0764 C   0  0  0  0  0  0  0  0  0  0  0  0
  -92.9455   26.3599   -3.9540 C   0  0  0  0  0  0  0  0  0  0  0  0
  -93.3819   25.5542   -5.0236 F   0  0  0  0  0  0  0  0  0  0  0  0
  -91.6559   25.9572   -3.6744 F   0  0  0  0  0  0  0  0  0  0  0  0
  -93.7239   26.1889   -2.8448 F   0  0  0  0  0  0  0  0  0  0  0  0
  -84.3284   28.6137    2.8022 C   0  0  0  0  0  0  0  0  0  0  0  0
  -84.6700   27.2826    2.1636 C   0  0  0  0  0  0  0  0  0  0  0  0
  -87.3358   27.0086    1.5442 C   0  0  0  0  0  0  0  0  0  0  0  0
  -88.1366   26.1774    2.0154 O   0  0  0  0  0  0  0  0  0  0  0  0
  -86.0037   27.1468    1.8527 N   0  0  0  0  0  0  0  0  0  0  0  0
  -86.1424   26.2131    2.8417 H   0  0  0  0  0  0  0  0  0  0  0  0
  -87.9447   27.9438    0.5255 C   0  0  0  0  0  0  0  0  0  0  0  0
  -87.1175   27.9964   -1.7910 C   0  0  0  0  0  0  0  0  0  0  0  0
  -88.1011   27.4022   -0.8319 C   0  0  0  0  0  0  0  0  0  0  0  0
  -89.5292   27.4387   -1.3502 C   0  0  0  0  0  0  0  0  0  0  0  0
  -87.7604   26.0063   -0.7302 O   0  0  0  0  0  0  0  0  0  0  0  0
  -88.1492   25.7037    0.1343 H   0  0  0  0  0  0  0  0  0  0  0  0
 38 39  1  0  0  0
 39 40  1  0  0  0
 39 41  1  0  0  0
 39 37  1  0  0  0
 37 33  1  0  0  0
 33 34  2  0  0  0
 33 35  1  0  0  0
 35 32  1  0  0  0
 32 31  1  0  0  0
 31  1  1  0  0  0
  1  2  2  0  0  0
  2  3  1  0  0  0
  3  4  2  0  0  0
  4  5  1  0  0  0
  5  6  2  0  0  0
  6  7  1  0  0  0
  7  8  2  0  0  0
  8 11  1  0  0  0
 11 13  1  0  0  0
 13 14  2  0  0  0
 14 15  1  0  0  0
 15 16  2  0  0  0
 16 20  1  0  0  0
 20 21  1  0  0  0
 21 22  2  0  0  0
 22 23  1  0  0  0
 23 24  2  0  0  0
 24 25  1  0  0  0
 25 27  1  0  0  0
 27 28  1  0  0  0
 27 29  1  0  0  0
 27 30  1  0  0  0
 25 26  2  0  0  0
 16 17  1  0  0  0
 17 18  1  0  0  0
 17 19  2  0  0  0
  8  9  1  0  0  0
  9 10  2  0  0  0
 10  1  1  0  0  0
  9  4  1  0  0  0
 19 13  1  0  0  0
 26 21  1  0  0  0
 41 42  1  0  0  0
 35 36  1  0  0  0
 11 12  1  0  0  0
M  END
> <minimizedAffinity>
-9.15718

> <CNNscore>
0.1713391542

> <CNNaffinity>
6.9984483719

> <CNN_VS>
1.1991082430

> <CNNaffinity_variance>
0.4919749200

$$$$
[H]OC(C([H])([H])[H])(C([H])([H])[H])C([H])([H])C(=O)N([H])C([H])([H])C([H])([H])c1c([H])c([H])c2nc([H])nc(N([H])c3c([H])c([H])c(Oc4c([H])c([H])c([H])c(C(F)(F)F)c4[H])c(Cl)c3[H])c2c1[H]


 42 45  0  0  0  0  0  0  0  0999 V2000
  -85.4527   27.7558    1.8349 C   0  0  0  0  0  0  0  0  0  0  0  0
  -84.1604   27.7234    2.2770 C   0  0  0  0  0  0  0  0  0  0  0  0
  -83.3551   28.8134    2.1564 C   0  0  0  0  0  0  0  0  0  0  0  0
  -83.8140   29.9893    1.5787 C   0  0  0  0  0  0  0  0  0  0  0  0
  -82.9520   31.0216    1.4813 N   0  0  0  0  0  0  0  0  0  0  0  0
  -83.3728   32.1581    0.9081 C   0  0  0  0  0  0  0  0  0  0  0  0
  -84.6254   32.1860    0.4696 N   0  0  0  0  0  0  0  0  0  0  0  0
  -85.5302   31.2216    0.5278 C   0  0  0  0  0  0  0  0  0  0  0  0
  -85.1155   30.0257    1.1269 C   0  0  0  0  0  0  0  0  0  0  0  0
  -85.9309   28.9478    1.2449 C   0  0  0  0  0  0  0  0  0  0  0  0
  -86.8151   31.3332   -0.0330 N   0  0  0  0  0  0  0  0  0  0  0  0
  -87.6562   30.8507    0.3754 H   0  0  0  0  0  0  0  0  0  0  0  0
  -87.0815   32.0974   -1.1996 C   0  0  0  0  0  0  0  0  0  0  0  0
  -86.7953   33.4184   -1.3519 C   0  0  0  0  0  0  0  0  0  0  0  0
  -86.9809   34.0876   -2.5651 C   0  0  0  0  0  0  0  0  0  0  0  0
  -87.4819   33.3929   -3.6803 C   0  0  0  0  0  0  0  0  0  0  0  0
  -87.7820   32.0570   -3.5444 C   0  0  0  0  0  0  0  0  0  0  0  0
  -88.4403   31.1190   -4.8990 Cl  0  0  0  0  0  0  0  0  0  0  0  0
  -87.5777   31.4479   -2.3269 C   0  0  0  0  0  0  0  0  0  0  0  0
  -87.6288   34.0922   -4.8173 O   0  0  0  0  0  0  0  0  0  0  0  0
  -88.1826   35.2539   -5.2029 C   0  0  0  0  0  0  0  0  0  0  0  0
  -89.4782   35.5574   -4.7528 C   0  0  0  0  0  0  0  0  0  0  0  0
  -90.0606   36.7342   -5.1301 C   0  0  0  0  0  0  0  0  0  0  0  0
  -89.3732   37.6063   -5.9456 C   0  0  0  0  0  0  0  0  0  0  0  0
  -88.1041   37.3382   -6.4056 C   0  0  0  0  0  0  0  0  0  0  0  0
  -87.5121   36.1624   -6.0313 C   0  0  0  0  0  0  0  0  0  0  0  0
  -87.4422   38.3235   -7.3015 C   0  0  0  0  0  0  0  0  0  0  0  0
  -88.3583   39.3357   -7.6476 F   0  0  0  0  0  0  0  0  0  0  0  0
  -86.4443   38.9432   -6.5779 F   0  0  0  0  0  0  0  0  0  0  0  0
  -86.9002   37.7352   -8.4086 F   0  0  0  0  0  0  0  0  0  0  0  0
  -86.3242   26.6056    1.8988 C   0  0  0  0  0  0  0  0  0  0  0  0
  -87.7851   26.8644    2.2070 C   0  0  0  0  0  0  0  0  0  0  0  0
  -89.4738   26.2837    0.1151 C   0  0  0  0  0  0  0  0  0  0  0  0
  -90.4313   26.9703   -0.2925 O   0  0  0  0  0  0  0  0  0  0  0  0
  -88.6291   26.5725    1.1600 N   0  0  0  0  0  0  0  0  0  0  0  0
  -89.2132   27.8025    1.2837 H   0  0  0  0  0  0  0  0  0  0  0  0
  -89.2602   25.0023   -0.6568 C   0  0  0  0  0  0  0  0  0  0  0  0
  -91.0187   23.3489   -1.1328 C   0  0  0  0  0  0  0  0  0  0  0  0
  -89.9851   23.8241   -0.1602 C   0  0  0  0  0  0  0  0  0  0  0  0
  -90.5282   23.9829    1.2503 C   0  0  0  0  0  0  0  0  0  0  0  0
  -89.0028   22.7734   -0.0822 O   0  0  0  0  0  0  0  0  0  0  0  0
  -88.1758   23.2119    0.2551 H   0  0  0  0  0  0  0  0  0  0  0  0
 38 39  1  0  0  0
 39 40  1  0  0  0
 39 41  1  0  0  0
 39 37  1  0  0  0
 37 33  1  0  0  0
 33 34  2  0  0  0
 33 35  1  0  0  0
 35 32  1  0  0  0
 32 31  1  0  0  0
 31  1  1  0  0  0
  1  2  2  0  0  0
  2  3  1  0  0  0
  3  4  2  0  0  0
  4  5  1  0  0  0
  5  6  2  0  0  0
  6  7  1  0  0  0
  7  8  2  0  0  0
  8 11  1  0  0  0
 11 13  1  0  0  0
 13 14  2  0  0  0
 14 15  1  0  0  0
 15 16  2  0  0  0
 16 20  1  0  0  0
 20 21  1  0  0  0
 21 22  2  0  0  0
 22 23  1  0  0  0
 23 24  2  0  0  0
 24 25  1  0  0  0
 25 27  1  0  0  0
 27 28  1  0  0  0
 27 29  1  0  0  0
 27 30  1  0  0  0
 25 26  2  0  0  0
 16 17  1  0  0  0
 17 18  1  0  0  0
 17 19  2  0  0  0
  8  9  1  0  0  0
  9 10  2  0  0  0
 10  1  1  0  0  0
  9  4  1  0  0  0
 19 13  1  0  0  0
 26 21  1  0  0  0
 41 42  1  0  0  0
 35 36  1  0  0  0
 11 12  1  0  0  0
M  END
> <minimizedAffinity>
-9.39482

> <CNNscore>
0.1667498648

> <CNNaffinity>
6.9456543922

> <CNN_VS>
1.1581869125

> <CNNaffinity_variance>
0.2280467451

$$$$
[H]OC(C([H])([H])[H])(C([H])([H])[H])C([H])([H])C(=O)N([H])C([H])([H])C([H])([H])c1c([H])c([H])c2nc([H])nc(N([H])c3c([H])c([H])c(Oc4c([H])c([H])c([H])c(C(F)(F)F)c4[H])c(Cl)c3[H])c2c1[H]


 42 45  0  0  0  0  0  0  0  0999 V2000
  -85.5317   27.8006    1.8833 C   0  0  0  0  0  0  0  0  0  0  0  0
  -84.2383   27.7181    2.3155 C   0  0  0  0  0  0  0  0  0  0  0  0
  -83.3822   28.7634    2.1561 C   0  0  0  0  0  0  0  0  0  0  0  0
  -83.7889   29.9430    1.5476 C   0  0  0  0  0  0  0  0  0  0  0  0
  -82.8789   30.9286    1.4125 N   0  0  0  0  0  0  0  0  0  0  0  0
  -83.2494   32.0671    0.8093 C   0  0  0  0  0  0  0  0  0  0  0  0
  -84.5033   32.1433    0.3805 N   0  0  0  0  0  0  0  0  0  0  0  0
  -85.4533   31.2263    0.4748 C   0  0  0  0  0  0  0  0  0  0  0  0
  -85.0915   30.0297    1.1056 C   0  0  0  0  0  0  0  0  0  0  0  0
  -85.9571   28.9968    1.2621 C   0  0  0  0  0  0  0  0  0  0  0  0
  -86.7367   31.3842   -0.0786 N   0  0  0  0  0  0  0  0  0  0  0  0
  -87.5832   30.8879    0.3012 H   0  0  0  0  0  0  0  0  0  0  0  0
  -86.9941   32.2176   -1.1989 C   0  0  0  0  0  0  0  0  0  0  0  0
  -86.6867   33.5402   -1.2773 C   0  0  0  0  0  0  0  0  0  0  0  0
  -86.8651   34.2802   -2.4498 C   0  0  0  0  0  0  0  0  0  0  0  0
  -87.3811   33.6581   -3.6005 C   0  0  0  0  0  0  0  0  0  0  0  0
  -87.7028   32.3218   -3.5392 C   0  0  0  0  0  0  0  0  0  0  0  0
  -88.3810   31.4730   -4.9421 Cl  0  0  0  0  0  0  0  0  0  0  0  0
  -87.5047   31.6413   -2.3591 C   0  0  0  0  0  0  0  0  0  0  0  0
  -87.5201   34.4231   -4.6954 O   0  0  0  0  0  0  0  0  0  0  0  0
  -88.4559   35.2217   -5.2353 C   0  0  0  0  0  0  0  0  0  0  0  0
  -88.6998   36.4665   -4.6318 C   0  0  0  0  0  0  0  0  0  0  0  0
  -89.6450   37.2964   -5.1649 C   0  0  0  0  0  0  0  0  0  0  0  0
  -90.3463   36.9038   -6.2840 C   0  0  0  0  0  0  0  0  0  0  0  0
  -90.1332   35.6906   -6.8978 C   0  0  0  0  0  0  0  0  0  0  0  0
  -89.1869   34.8534   -6.3716 C   0  0  0  0  0  0  0  0  0  0  0  0
  -90.9505   35.3349   -8.0882 C   0  0  0  0  0  0  0  0  0  0  0  0
  -92.2901   35.7113   -7.8698 F   0  0  0  0  0  0  0  0  0  0  0  0
  -90.5063   36.1018   -9.1456 F   0  0  0  0  0  0  0  0  0  0  0  0
  -90.8458   34.0123   -8.4125 F   0  0  0  0  0  0  0  0  0  0  0  0
  -86.4575   26.6967    1.9885 C   0  0  0  0  0  0  0  0  0  0  0  0
  -87.1677   26.2699    0.7198 C   0  0  0  0  0  0  0  0  0  0  0  0
  -89.8302   26.9579    0.6663 C   0  0  0  0  0  0  0  0  0  0  0  0
  -90.6412   26.9026    1.6116 O   0  0  0  0  0  0  0  0  0  0  0  0
  -88.4996   26.6146    0.6914 N   0  0  0  0  0  0  0  0  0  0  0  0
  -88.5796   26.4294    2.0438 H   0  0  0  0  0  0  0  0  0  0  0  0
  -90.4240   27.4633   -0.6280 C   0  0  0  0  0  0  0  0  0  0  0  0
  -91.3926   29.2876   -1.9647 C   0  0  0  0  0  0  0  0  0  0  0  0
  -90.8565   28.8680   -0.6317 C   0  0  0  0  0  0  0  0  0  0  0  0
  -89.8214   29.8339   -0.0792 C   0  0  0  0  0  0  0  0  0  0  0  0
  -91.9705   28.9294    0.2796 O   0  0  0  0  0  0  0  0  0  0  0  0
  -91.7237   28.3319    1.0361 H   0  0  0  0  0  0  0  0  0  0  0  0
 38 39  1  0  0  0
 39 40  1  0  0  0
 39 41  1  0  0  0
 39 37  1  0  0  0
 37 33  1  0  0  0
 33 34  2  0  0  0
 33 35  1  0  0  0
 35 32  1  0  0  0
 32 31  1  0  0  0
 31  1  1  0  0  0
  1  2  2  0  0  0
  2  3  1  0  0  0
  3  4  2  0  0  0
  4  5  1  0  0  0
  5  6  2  0  0  0
  6  7  1  0  0  0
  7  8  2  0  0  0
  8 11  1  0  0  0
 11 13  1  0  0  0
 13 14  2  0  0  0
 14 15  1  0  0  0
 15 16  2  0  0  0
 16 20  1  0  0  0
 20 21  1  0  0  0
 21 22  2  0  0  0
 22 23  1  0  0  0
 23 24  2  0  0  0
 24 25  1  0  0  0
 25 27  1  0  0  0
 27 28  1  0  0  0
 27 29  1  0  0  0
 27 30  1  0  0  0
 25 26  2  0  0  0
 16 17  1  0  0  0
 17 18  1  0  0  0
 17 19  2  0  0  0
  8  9  1  0  0  0
  9 10  2  0  0  0
 10  1  1  0  0  0
  9  4  1  0  0  0
 19 13  1  0  0  0
 26 21  1  0  0  0
 41 42  1  0  0  0
 35 36  1  0  0  0
 11 12  1  0  0  0
M  END
> <minimizedAffinity>
-9.27835

> <CNNscore>
0.1552414745

> <CNNaffinity>
6.7829427719

> <CNN_VS>
1.0529940128

> <CNNaffinity_variance>
0.5313268900

$$$$
[H]OC(C([H])([H])[H])(C([H])([H])[H])C([H])([H])C(=O)N([H])C([H])([H])C([H])([H])c1c([H])c([H])c2nc([H])nc(N([H])c3c([H])c([H])c(Oc4c([H])c([H])c([H])c(C(F)(F)F)c4[H])c(Cl)c3[H])c2c1[H]


 42 45  0  0  0  0  0  0  0  0999 V2000
  -86.5244   28.4818    0.5475 C   0  0  0  0  0  0  0  0  0  0  0  0
  -85.2734   28.4086    1.0915 C   0  0  0  0  0  0  0  0  0  0  0  0
  -84.4531   29.4940    1.1016 C   0  0  0  0  0  0  0  0  0  0  0  0
  -84.8542   30.7067    0.5580 C   0  0  0  0  0  0  0  0  0  0  0  0
  -83.9798   31.7325    0.5923 N   0  0  0  0  0  0  0  0  0  0  0  0
  -84.3436   32.9052    0.0540 C   0  0  0  0  0  0  0  0  0  0  0  0
  -85.5554   32.9733   -0.4835 N   0  0  0  0  0  0  0  0  0  0  0  0
  -86.4688   32.0180   -0.5563 C   0  0  0  0  0  0  0  0  0  0  0  0
  -86.1137   30.7847    0.0037 C   0  0  0  0  0  0  0  0  0  0  0  0
  -86.9437   29.7116   -0.0090 C   0  0  0  0  0  0  0  0  0  0  0  0
  -87.7022   32.1772   -1.2133 N   0  0  0  0  0  0  0  0  0  0  0  0
  -88.5740   31.6699   -0.9140 H   0  0  0  0  0  0  0  0  0  0  0  0
  -87.8704   33.0272   -2.3382 C   0  0  0  0  0  0  0  0  0  0  0  0
  -87.0100   34.0130   -2.7096 C   0  0  0  0  0  0  0  0  0  0  0  0
  -87.1751   34.7424   -3.8907 C   0  0  0  0  0  0  0  0  0  0  0  0
  -88.2621   34.4672   -4.7392 C   0  0  0  0  0  0  0  0  0  0  0  0
  -89.1462   33.4769   -4.3779 C   0  0  0  0  0  0  0  0  0  0  0  0
  -90.5548   33.0883   -5.3844 Cl  0  0  0  0  0  0  0  0  0  0  0  0
  -88.9340   32.7888   -3.2046 C   0  0  0  0  0  0  0  0  0  0  0  0
  -88.3582   35.1983   -5.8616 O   0  0  0  0  0  0  0  0  0  0  0  0
  -88.3190   36.4962   -6.2066 C   0  0  0  0  0  0  0  0  0  0  0  0
  -89.2004   37.3836   -5.5671 C   0  0  0  0  0  0  0  0  0  0  0  0
  -89.1768   38.7083   -5.8999 C   0  0  0  0  0  0  0  0  0  0  0  0
  -88.2923   39.1570   -6.8563 C   0  0  0  0  0  0  0  0  0  0  0  0
  -87.4175   38.3139   -7.5028 C   0  0  0  0  0  0  0  0  0  0  0  0
  -87.4330   36.9853   -7.1746 C   0  0  0  0  0  0  0  0  0  0  0  0
  -86.5120   38.8766   -8.5396 C   0  0  0  0  0  0  0  0  0  0  0  0
  -85.1975   38.9329   -8.0371 F   0  0  0  0  0  0  0  0  0  0  0  0
  -86.4796   37.9878   -9.5943 F   0  0  0  0  0  0  0  0  0  0  0  0
  -86.9321   40.0964   -8.9880 F   0  0  0  0  0  0  0  0  0  0  0  0
  -87.4065   27.3404    0.4722 C   0  0  0  0  0  0  0  0  0  0  0  0
  -88.8746   27.5842    0.7572 C   0  0  0  0  0  0  0  0  0  0  0  0
  -89.9549   25.8172    2.5670 C   0  0  0  0  0  0  0  0  0  0  0  0
  -90.8636   24.9891    2.3603 O   0  0  0  0  0  0  0  0  0  0  0  0
  -89.4140   26.7007    1.6639 N   0  0  0  0  0  0  0  0  0  0  0  0
  -90.1471   26.1199    0.6665 H   0  0  0  0  0  0  0  0  0  0  0  0
  -89.4235   25.8104    3.9816 C   0  0  0  0  0  0  0  0  0  0  0  0
  -90.1190   28.1227    4.4534 C   0  0  0  0  0  0  0  0  0  0  0  0
  -90.1056   26.7036    4.9289 C   0  0  0  0  0  0  0  0  0  0  0  0
  -89.6246   26.5646    6.3637 C   0  0  0  0  0  0  0  0  0  0  0  0
  -91.4812   26.2763    4.9373 O   0  0  0  0  0  0  0  0  0  0  0  0
  -91.4476   25.2827    4.8968 H   0  0  0  0  0  0  0  0  0  0  0  0
 38 39  1  0  0  0
 39 40  1  0  0  0
 39 41  1  0  0  0
 39 37  1  0  0  0
 37 33  1  0  0  0
 33 34  2  0  0  0
 33 35  1  0  0  0
 35 32  1  0  0  0
 32 31  1  0  0  0
 31  1  1  0  0  0
  1  2  2  0  0  0
  2  3  1  0  0  0
  3  4  2  0  0  0
  4  5  1  0  0  0
  5  6  2  0  0  0
  6  7  1  0  0  0
  7  8  2  0  0  0
  8 11  1  0  0  0
 11 13  1  0  0  0
 13 14  2  0  0  0
 14 15  1  0  0  0
 15 16  2  0  0  0
 16 20  1  0  0  0
 20 21  1  0  0  0
 21 22  2  0  0  0
 22 23  1  0  0  0
 23 24  2  0  0  0
 24 25  1  0  0  0
 25 27  1  0  0  0
 27 28  1  0  0  0
 27 29  1  0  0  0
 27 30  1  0  0  0
 25 26  2  0  0  0
 16 17  1  0  0  0
 17 18  1  0  0  0
 17 19  2  0  0  0
  8  9  1  0  0  0
  9 10  2  0  0  0
 10  1  1  0  0  0
  9  4  1  0  0  0
 19 13  1  0  0  0
 26 21  1  0  0  0
 41 42  1  0  0  0
 35 36  1  0  0  0
 11 12  1  0  0  0
M  END
> <minimizedAffinity>
-8.71946

> <CNNscore>
0.1470679492

> <CNNaffinity>
6.8974637985

> <CNN_VS>
1.0143958330

> <CNNaffinity_variance>
0.3714962602

$$$$
[H]OC(C([H])([H])[H])(C([H])([H])[H])C([H])([H])C(=O)N([H])C([H])([H])C([H])([H])c1c([H])c([H])c2nc([H])nc(N([H])c3c([H])c([H])c(Oc4c([H])c([H])c([H])c(C(F)(F)F)c4[H])c(Cl)c3[H])c2c1[H]


 42 45  0  0  0  0  0  0  0  0999 V2000
  -84.2557   29.3364    2.0369 C   0  0  0  0  0  0  0  0  0  0  0  0
  -82.9278   29.6323    1.9116 C   0  0  0  0  0  0  0  0  0  0  0  0
  -82.5186   30.7046    1.1811 C   0  0  0  0  0  0  0  0  0  0  0  0
  -83.4307   31.5292    0.5366 C   0  0  0  0  0  0  0  0  0  0  0  0
  -82.9475   32.5637   -0.1805 N   0  0  0  0  0  0  0  0  0  0  0  0
  -83.8134   33.3584   -0.8256 C   0  0  0  0  0  0  0  0  0  0  0  0
  -85.1030   33.0649   -0.7119 N   0  0  0  0  0  0  0  0  0  0  0  0
  -85.6555   32.0737   -0.0305 C   0  0  0  0  0  0  0  0  0  0  0  0
  -84.7712   31.2325    0.6560 C   0  0  0  0  0  0  0  0  0  0  0  0
  -85.1936   30.1690    1.3849 C   0  0  0  0  0  0  0  0  0  0  0  0
  -87.0371   31.8102   -0.0338 N   0  0  0  0  0  0  0  0  0  0  0  0
  -87.5375   31.3957    0.7937 H   0  0  0  0  0  0  0  0  0  0  0  0
  -87.8676   32.0729   -1.1550 C   0  0  0  0  0  0  0  0  0  0  0  0
  -88.8877   32.9723   -1.1795 C   0  0  0  0  0  0  0  0  0  0  0  0
  -89.5974   33.2649   -2.3478 C   0  0  0  0  0  0  0  0  0  0  0  0
  -89.2651   32.6180   -3.5514 C   0  0  0  0  0  0  0  0  0  0  0  0
  -88.2392   31.7011   -3.5454 C   0  0  0  0  0  0  0  0  0  0  0  0
  -87.7775   30.8269   -5.0187 Cl  0  0  0  0  0  0  0  0  0  0  0  0
  -87.5729   31.4532   -2.3666 C   0  0  0  0  0  0  0  0  0  0  0  0
  -89.9801   32.9502   -4.6384 O   0  0  0  0  0  0  0  0  0  0  0  0
  -89.9797   33.9206   -5.5676 C   0  0  0  0  0  0  0  0  0  0  0  0
  -90.9976   33.9179   -6.5357 C   0  0  0  0  0  0  0  0  0  0  0  0
  -91.0190   34.8962   -7.4889 C   0  0  0  0  0  0  0  0  0  0  0  0
  -90.0448   35.8705   -7.4903 C   0  0  0  0  0  0  0  0  0  0  0  0
  -89.0330   35.9005   -6.5578 C   0  0  0  0  0  0  0  0  0  0  0  0
  -89.0045   34.9253   -5.5980 C   0  0  0  0  0  0  0  0  0  0  0  0
  -88.0077   36.9742   -6.6454 C   0  0  0  0  0  0  0  0  0  0  0  0
  -87.4270   37.1759   -5.3782 F   0  0  0  0  0  0  0  0  0  0  0  0
  -86.9931   36.5188   -7.4619 F   0  0  0  0  0  0  0  0  0  0  0  0
  -88.5146   38.1346   -7.1572 F   0  0  0  0  0  0  0  0  0  0  0  0
  -84.7286   28.1795    2.7613 C   0  0  0  0  0  0  0  0  0  0  0  0
  -85.2142   27.0030    1.9391 C   0  0  0  0  0  0  0  0  0  0  0  0
  -87.9517   26.8861    1.6992 C   0  0  0  0  0  0  0  0  0  0  0  0
  -88.7960   27.4344    2.4346 O   0  0  0  0  0  0  0  0  0  0  0  0
  -86.5837   26.9436    1.8177 N   0  0  0  0  0  0  0  0  0  0  0  0
  -86.7157   27.8634    2.8206 H   0  0  0  0  0  0  0  0  0  0  0  0
  -88.5481   26.0806    0.5683 C   0  0  0  0  0  0  0  0  0  0  0  0
  -88.0384   28.1318   -0.6909 C   0  0  0  0  0  0  0  0  0  0  0  0
  -88.5326   26.7205   -0.7548 C   0  0  0  0  0  0  0  0  0  0  0  0
  -89.8378   26.5845   -1.5214 C   0  0  0  0  0  0  0  0  0  0  0  0
  -87.5540   25.9932   -1.5218 O   0  0  0  0  0  0  0  0  0  0  0  0
  -87.6777   25.0392   -1.2676 H   0  0  0  0  0  0  0  0  0  0  0  0
 38 39  1  0  0  0
 39 40  1  0  0  0
 39 41  1  0  0  0
 39 37  1  0  0  0
 37 33  1  0  0  0
 33 34  2  0  0  0
 33 35  1  0  0  0
 35 32  1  0  0  0
 32 31  1  0  0  0
 31  1  1  0  0  0
  1  2  2  0  0  0
  2  3  1  0  0  0
  3  4  2  0  0  0
  4  5  1  0  0  0
  5  6  2  0  0  0
  6  7  1  0  0  0
  7  8  2  0  0  0
  8 11  1  0  0  0
 11 13  1  0  0  0
 13 14  2  0  0  0
 14 15  1  0  0  0
 15 16  2  0  0  0
 16 20  1  0  0  0
 20 21  1  0  0  0
 21 22  2  0  0  0
 22 23  1  0  0  0
 23 24  2  0  0  0
 24 25  1  0  0  0
 25 27  1  0  0  0
 27 28  1  0  0  0
 27 29  1  0  0  0
 27 30  1  0  0  0
 25 26  2  0  0  0
 16 17  1  0  0  0
 17 18  1  0  0  0
 17 19  2  0  0  0
  8  9  1  0  0  0
  9 10  2  0  0  0
 10  1  1  0  0  0
  9  4  1  0  0  0
 19 13  1  0  0  0
 26 21  1  0  0  0
 41 42  1  0  0  0
 35 36  1  0  0  0
 11 12  1  0  0  0
M  END
> <minimizedAffinity>
-9.67137

> <CNNscore>
0.1240587085

> <CNNaffinity>
7.1720838547

> <CNN_VS>
0.8897594810

> <CNNaffinity_variance>
0.3034564853

$$$$
[H]OC(=O)c1c([H])c([H])c(C([H])([H])N([H])C(=O)c2c([H])c([H])c(C(C([H])([H])[H])(C([H])([H])[H])C([H])([H])[H])c([H])c2[H])c([H])c1F


 26 27  0  0  0  0  0  0  0  0999 V2000
  -85.9529   33.6016   -0.9469 C   0  0  0  0  0  0  0  0  0  0  0  0
  -86.0184   34.1355    0.1994 O   0  0  0  0  0  0  0  0  0  0  0  0
  -84.8150   32.8609   -1.2888 N   0  0  0  0  0  0  0  0  0  0  0  0
  -84.7960   32.4134   -2.2564 H   0  0  0  0  0  0  0  0  0  0  0  0
  -89.1434   34.0990   -3.7386 C   0  0  0  0  0  0  0  0  0  0  0  0
  -89.3103   33.3767   -2.5723 C   0  0  0  0  0  0  0  0  0  0  0  0
  -88.2845   33.2023   -1.6678 C   0  0  0  0  0  0  0  0  0  0  0  0
  -87.0412   33.7491   -1.9015 C   0  0  0  0  0  0  0  0  0  0  0  0
  -86.8345   34.4697   -3.0447 C   0  0  0  0  0  0  0  0  0  0  0  0
  -87.8941   34.6290   -3.9401 C   0  0  0  0  0  0  0  0  0  0  0  0
  -91.0113   35.5409   -4.3166 C   0  0  0  0  0  0  0  0  0  0  0  0
  -90.2529   34.2939   -4.7250 C   0  0  0  0  0  0  0  0  0  0  0  0
  -91.2166   33.1341   -4.6351 C   0  0  0  0  0  0  0  0  0  0  0  0
  -89.7292   34.3992   -6.1429 C   0  0  0  0  0  0  0  0  0  0  0  0
  -83.6624   32.6103   -0.4758 C   0  0  0  0  0  0  0  0  0  0  0  0
  -83.7677   31.3517    0.3009 C   0  0  0  0  0  0  0  0  0  0  0  0
  -85.0088   30.6823    0.2951 C   0  0  0  0  0  0  0  0  0  0  0  0
  -85.1738   29.4977    0.9644 C   0  0  0  0  0  0  0  0  0  0  0  0
  -84.1461   28.8880    1.6813 C   0  0  0  0  0  0  0  0  0  0  0  0
  -82.9284   29.5372    1.6939 C   0  0  0  0  0  0  0  0  0  0  0  0
  -81.8915   28.9834    2.3726 F   0  0  0  0  0  0  0  0  0  0  0  0
  -82.7668   30.7468    1.0082 C   0  0  0  0  0  0  0  0  0  0  0  0
  -84.3815   27.6260    2.3548 C   0  0  0  0  0  0  0  0  0  0  0  0
  -85.5014   27.0689    2.1835 O   0  0  0  0  0  0  0  0  0  0  0  0
  -83.4262   27.0525    3.1480 O   0  0  0  0  0  0  0  0  0  0  0  0
  -82.6860   26.4220    2.8209 H   0  0  0  0  0  0  0  0  0  0  0  0
 11 12  1  0  0  0
 12 13  1  0  0  0
 12 14  1  0  0  0
 12  5  1  0  0  0
  5  6  2  0  0  0
  6  7  1  0  0  0
  7  8  2  0  0  0
  8  1  1  0  0  0
  1  2  2  0  0  0
  1  3  1  0  0  0
  3 15  1  0  0  0
 15 16  1  0  0  0
 16 17  2  0  0  0
 17 18  1  0  0  0
 18 19  2  0  0  0
 19 23  1  0  0  0
 23 24  2  0  0  0
 23 25  1  0  0  0
 19 20  1  0  0  0
 20 21  1  0  0  0
 20 22  2  0  0  0
  8  9  1  0  0  0
  9 10  2  0  0  0
 10  5  1  0  0  0
 22 16  1  0  0  0
  3  4  1  0  0  0
 25 26  1  0  0  0
M  END
> <minimizedAffinity>
-8.50059

> <CNNscore>
0.5873463750

> <CNNaffinity>
5.6471085548

> <CNN_VS>
3.3168087006

> <CNNaffinity_variance>
0.1410923898

$$$$
[H]OC(=O)c1c([H])c([H])c(C([H])([H])N([H])C(=O)c2c([H])c([H])c(C(C([H])([H])[H])(C([H])([H])[H])C([H])([H])[H])c([H])c2[H])c([H])c1F


 26 27  0  0  0  0  0  0  0  0999 V2000
  -88.1678   33.2177   -2.3140 C   0  0  0  0  0  0  0  0  0  0  0  0
  -89.3945   32.9071   -2.2670 O   0  0  0  0  0  0  0  0  0  0  0  0
  -87.7309   34.1193   -3.2920 N   0  0  0  0  0  0  0  0  0  0  0  0
  -86.6946   34.3702   -3.2970 H   0  0  0  0  0  0  0  0  0  0  0  0
  -85.3388   31.5531    0.4148 C   0  0  0  0  0  0  0  0  0  0  0  0
  -86.5321   30.9154    0.1332 C   0  0  0  0  0  0  0  0  0  0  0  0
  -87.4569   31.4480   -0.7397 C   0  0  0  0  0  0  0  0  0  0  0  0
  -87.2185   32.6515   -1.3675 C   0  0  0  0  0  0  0  0  0  0  0  0
  -86.0502   33.3149   -1.1148 C   0  0  0  0  0  0  0  0  0  0  0  0
  -85.1338   32.7484   -0.2267 C   0  0  0  0  0  0  0  0  0  0  0  0
  -84.4720   29.4720    1.3204 C   0  0  0  0  0  0  0  0  0  0  0  0
  -84.3290   30.9804    1.3604 C   0  0  0  0  0  0  0  0  0  0  0  0
  -84.6494   31.4233    2.7686 C   0  0  0  0  0  0  0  0  0  0  0  0
  -82.9215   31.4165    1.0078 C   0  0  0  0  0  0  0  0  0  0  0  0
  -88.5235   34.7721   -4.2910 C   0  0  0  0  0  0  0  0  0  0  0  0
  -87.7715   35.8107   -5.0353 C   0  0  0  0  0  0  0  0  0  0  0  0
  -88.0131   35.9263   -6.4197 C   0  0  0  0  0  0  0  0  0  0  0  0
  -87.3787   36.8828   -7.1686 C   0  0  0  0  0  0  0  0  0  0  0  0
  -86.4702   37.7872   -6.6222 C   0  0  0  0  0  0  0  0  0  0  0  0
  -86.2262   37.6803   -5.2681 C   0  0  0  0  0  0  0  0  0  0  0  0
  -85.3540   38.5407   -4.6840 F   0  0  0  0  0  0  0  0  0  0  0  0
  -86.8777   36.7009   -4.5092 C   0  0  0  0  0  0  0  0  0  0  0  0
  -85.8447   38.7861   -7.4664 C   0  0  0  0  0  0  0  0  0  0  0  0
  -84.5860   38.7685   -7.5631 O   0  0  0  0  0  0  0  0  0  0  0  0
  -86.5875   39.7168   -8.1394 O   0  0  0  0  0  0  0  0  0  0  0  0
  -86.9958   39.5865   -9.0713 H   0  0  0  0  0  0  0  0  0  0  0  0
 11 12  1  0  0  0
 12 13  1  0  0  0
 12 14  1  0  0  0
 12  5  1  0  0  0
  5  6  2  0  0  0
  6  7  1  0  0  0
  7  8  2  0  0  0
  8  1  1  0  0  0
  1  2  2  0  0  0
  1  3  1  0  0  0
  3 15  1  0  0  0
 15 16  1  0  0  0
 16 17  2  0  0  0
 17 18  1  0  0  0
 18 19  2  0  0  0
 19 23  1  0  0  0
 23 24  2  0  0  0
 23 25  1  0  0  0
 19 20  1  0  0  0
 20 21  1  0  0  0
 20 22  2  0  0  0
  8  9  1  0  0  0
  9 10  2  0  0  0
 10  5  1  0  0  0
 22 16  1  0  0  0
  3  4  1  0  0  0
 25 26  1  0  0  0
M  END
> <minimizedAffinity>
-8.10167

> <CNNscore>
0.5612522364

> <CNNaffinity>
5.7437295914

> <CNN_VS>
3.2236809731

> <CNNaffinity_variance>
0.2480283231

$$$$
[H]OC(=O)c1c([H])c([H])c(C([H])([H])N([H])C(=O)c2c([H])c([H])c(C(C([H])([H])[H])(C([H])([H])[H])C([H])([H])[H])c([H])c2[H])c([H])c1F


 26 27  0  0  0  0  0  0  0  0999 V2000
  -87.9224   32.0884   -2.3457 C   0  0  0  0  0  0  0  0  0  0  0  0
  -88.2134   31.2654   -3.2629 O   0  0  0  0  0  0  0  0  0  0  0  0
  -88.3701   33.4109   -2.4506 N   0  0  0  0  0  0  0  0  0  0  0  0
  -88.1193   34.0759   -1.6557 H   0  0  0  0  0  0  0  0  0  0  0  0
  -85.5592   30.8821    0.9981 C   0  0  0  0  0  0  0  0  0  0  0  0
  -86.4615   30.0209    0.4031 C   0  0  0  0  0  0  0  0  0  0  0  0
  -87.2361   30.4024   -0.6717 C   0  0  0  0  0  0  0  0  0  0  0  0
  -87.1353   31.6739   -1.1941 C   0  0  0  0  0  0  0  0  0  0  0  0
  -86.2553   32.5568   -0.6331 C   0  0  0  0  0  0  0  0  0  0  0  0
  -85.4845   32.1392    0.4537 C   0  0  0  0  0  0  0  0  0  0  0  0
  -83.3168   30.2048    1.6422 C   0  0  0  0  0  0  0  0  0  0  0  0
  -84.7137   30.4745    2.1646 C   0  0  0  0  0  0  0  0  0  0  0  0
  -85.2360   29.1777    2.7369 C   0  0  0  0  0  0  0  0  0  0  0  0
  -84.7085   31.5327    3.2490 C   0  0  0  0  0  0  0  0  0  0  0  0
  -89.1542   33.9839   -3.5037 C   0  0  0  0  0  0  0  0  0  0  0  0
  -88.4787   35.1227   -4.1709 C   0  0  0  0  0  0  0  0  0  0  0  0
  -88.1088   36.2230   -3.3703 C   0  0  0  0  0  0  0  0  0  0  0  0
  -87.4535   37.2988   -3.9102 C   0  0  0  0  0  0  0  0  0  0  0  0
  -87.1159   37.3755   -5.2600 C   0  0  0  0  0  0  0  0  0  0  0  0
  -87.4757   36.3037   -6.0515 C   0  0  0  0  0  0  0  0  0  0  0  0
  -87.1656   36.3247   -7.3727 F   0  0  0  0  0  0  0  0  0  0  0  0
  -88.1449   35.2081   -5.4935 C   0  0  0  0  0  0  0  0  0  0  0  0
  -86.4081   38.5352   -5.7657 C   0  0  0  0  0  0  0  0  0  0  0  0
  -87.0967   39.5087   -6.1805 O   0  0  0  0  0  0  0  0  0  0  0  0
  -85.0413   38.5800   -5.7929 O   0  0  0  0  0  0  0  0  0  0  0  0
  -84.4444   38.8979   -5.0216 H   0  0  0  0  0  0  0  0  0  0  0  0
 11 12  1  0  0  0
 12 13  1  0  0  0
 12 14  1  0  0  0
 12  5  1  0  0  0
  5  6  2  0  0  0
  6  7  1  0  0  0
  7  8  2  0  0  0
  8  1  1  0  0  0
  1  2  2  0  0  0
  1  3  1  0  0  0
  3 15  1  0  0  0
 15 16  1  0  0  0
 16 17  2  0  0  0
 17 18  1  0  0  0
 18 19  2  0  0  0
 19 23  1  0  0  0
 23 24  2  0  0  0
 23 25  1  0  0  0
 19 20  1  0  0  0
 20 21  1  0  0  0
 20 22  2  0  0  0
  8  9  1  0  0  0
  9 10  2  0  0  0
 10  5  1  0  0  0
 22 16  1  0  0  0
  3  4  1  0  0  0
 25 26  1  0  0  0
M  END
> <minimizedAffinity>
-8.02286

> <CNNscore>
0.3413128555

> <CNNaffinity>
5.4997982979

> <CNN_VS>
1.8771518469

> <CNNaffinity_variance>
0.1457580626

$$$$
[H]OC(=O)c1c([H])c([H])c(C([H])([H])N([H])C(=O)c2c([H])c([H])c(C(C([H])([H])[H])(C([H])([H])[H])C([H])([H])[H])c([H])c2[H])c([H])c1F


 26 27  0  0  0  0  0  0  0  0999 V2000
  -88.0773   30.4183   -2.5576 C   0  0  0  0  0  0  0  0  0  0  0  0
  -88.1723   29.5624   -3.4860 O   0  0  0  0  0  0  0  0  0  0  0  0
  -88.8101   31.6077   -2.6508 N   0  0  0  0  0  0  0  0  0  0  0  0
  -88.7184   32.3021   -1.8469 H   0  0  0  0  0  0  0  0  0  0  0  0
  -85.5214   29.7444    0.7941 C   0  0  0  0  0  0  0  0  0  0  0  0
  -85.9989   28.6980    0.0280 C   0  0  0  0  0  0  0  0  0  0  0  0
  -86.8318   28.9032   -1.0513 C   0  0  0  0  0  0  0  0  0  0  0  0
  -87.2221   30.1767   -1.4053 C   0  0  0  0  0  0  0  0  0  0  0  0
  -86.7727   31.2393   -0.6720 C   0  0  0  0  0  0  0  0  0  0  0  0
  -85.9295   30.9981    0.4145 C   0  0  0  0  0  0  0  0  0  0  0  0
  -84.6538   28.0531    2.3070 C   0  0  0  0  0  0  0  0  0  0  0  0
  -84.6156   29.5295    1.9667 C   0  0  0  0  0  0  0  0  0  0  0  0
  -85.1535   30.2788    3.1630 C   0  0  0  0  0  0  0  0  0  0  0  0
  -83.2042   29.9985    1.6770 C   0  0  0  0  0  0  0  0  0  0  0  0
  -89.6985   32.0030   -3.7028 C   0  0  0  0  0  0  0  0  0  0  0  0
  -89.2456   33.2245   -4.4109 C   0  0  0  0  0  0  0  0  0  0  0  0
  -88.0058   33.7783   -4.0307 C   0  0  0  0  0  0  0  0  0  0  0  0
  -87.5069   34.8886   -4.6604 C   0  0  0  0  0  0  0  0  0  0  0  0
  -88.1788   35.5317   -5.6982 C   0  0  0  0  0  0  0  0  0  0  0  0
  -89.3940   34.9975   -6.0757 C   0  0  0  0  0  0  0  0  0  0  0  0
  -90.0874   35.5820   -7.0856 F   0  0  0  0  0  0  0  0  0  0  0  0
  -89.8976   33.8633   -5.4281 C   0  0  0  0  0  0  0  0  0  0  0  0
  -87.5889   36.6935   -6.3339 C   0  0  0  0  0  0  0  0  0  0  0  0
  -86.8392   36.4999   -7.3311 O   0  0  0  0  0  0  0  0  0  0  0  0
  -87.8341   37.9584   -5.8750 O   0  0  0  0  0  0  0  0  0  0  0  0
  -88.6233   38.5485   -6.1600 H   0  0  0  0  0  0  0  0  0  0  0  0
 11 12  1  0  0  0
 12 13  1  0  0  0
 12 14  1  0  0  0
 12  5  1  0  0  0
  5  6  2  0  0  0
  6  7  1  0  0  0
  7  8  2  0  0  0
  8  1  1  0  0  0
  1  2  2  0  0  0
  1  3  1  0  0  0
  3 15  1  0  0  0
 15 16  1  0  0  0
 16 17  2  0  0  0
 17 18  1  0  0  0
 18 19  2  0  0  0
 19 23  1  0  0  0
 23 24  2  0  0  0
 23 25  1  0  0  0
 19 20  1  0  0  0
 20 21  1  0  0  0
 20 22  2  0  0  0
  8  9  1  0  0  0
  9 10  2  0  0  0
 10  5  1  0  0  0
 22 16  1  0  0  0
  3  4  1  0  0  0
 25 26  1  0  0  0
M  END
> <minimizedAffinity>
-8.36730

> <CNNscore>
0.2599649727

> <CNNaffinity>
5.2007689476

> <CNN_VS>
1.3520177603

> <CNNaffinity_variance>
0.1649212539

$$$$
[H]OC(=O)c1c([H])c([H])c(C([H])([H])N([H])C(=O)c2c([H])c([H])c(C(C([H])([H])[H])(C([H])([H])[H])C([H])([H])[H])c([H])c2[H])c([H])c1F


 26 27  0  0  0  0  0  0  0  0999 V2000
  -88.2881   29.4324   -2.2431 C   0  0  0  0  0  0  0  0  0  0  0  0
  -88.0887   29.5231   -3.4903 O   0  0  0  0  0  0  0  0  0  0  0  0
  -89.5296   28.9764   -1.7836 N   0  0  0  0  0  0  0  0  0  0  0  0
  -89.6615   28.8991   -0.7284 H   0  0  0  0  0  0  0  0  0  0  0  0
  -85.2612   30.4537    0.5881 C   0  0  0  0  0  0  0  0  0  0  0  0
  -86.0881   31.4140    0.0368 C   0  0  0  0  0  0  0  0  0  0  0  0
  -87.0632   31.0969   -0.8848 C   0  0  0  0  0  0  0  0  0  0  0  0
  -87.2464   29.7934   -1.2933 C   0  0  0  0  0  0  0  0  0  0  0  0
  -86.4479   28.8135   -0.7727 C   0  0  0  0  0  0  0  0  0  0  0  0
  -85.4704   29.1672    0.1596 C   0  0  0  0  0  0  0  0  0  0  0  0
  -83.2343   31.7497    0.9258 C   0  0  0  0  0  0  0  0  0  0  0  0
  -84.2011   30.7902    1.5904 C   0  0  0  0  0  0  0  0  0  0  0  0
  -83.4243   29.5427    1.9404 C   0  0  0  0  0  0  0  0  0  0  0  0
  -84.7928   31.3810    2.8540 C   0  0  0  0  0  0  0  0  0  0  0  0
  -90.6562   28.5752   -2.5723 C   0  0  0  0  0  0  0  0  0  0  0  0
  -90.9134   27.1164   -2.5096 C   0  0  0  0  0  0  0  0  0  0  0  0
  -92.1969   26.6628   -2.8774 C   0  0  0  0  0  0  0  0  0  0  0  0
  -92.4999   25.3262   -2.8742 C   0  0  0  0  0  0  0  0  0  0  0  0
  -91.5775   24.3456   -2.5142 C   0  0  0  0  0  0  0  0  0  0  0  0
  -90.3192   24.7806   -2.1511 C   0  0  0  0  0  0  0  0  0  0  0  0
  -89.3807   23.8662   -1.7970 F   0  0  0  0  0  0  0  0  0  0  0  0
  -90.0166   26.1474   -2.1565 C   0  0  0  0  0  0  0  0  0  0  0  0
  -91.9565   22.9466   -2.5472 C   0  0  0  0  0  0  0  0  0  0  0  0
  -91.9845   22.3198   -1.4516 O   0  0  0  0  0  0  0  0  0  0  0  0
  -92.2758   22.3223   -3.7215 O   0  0  0  0  0  0  0  0  0  0  0  0
  -93.2104   22.2987   -4.1438 H   0  0  0  0  0  0  0  0  0  0  0  0
 11 12  1  0  0  0
 12 13  1  0  0  0
 12 14  1  0  0  0
 12  5  1  0  0  0
  5  6  2  0  0  0
  6  7  1  0  0  0
  7  8  2  0  0  0
  8  1  1  0  0  0
  1  2  2  0  0  0
  1  3  1  0  0  0
  3 15  1  0  0  0
 15 16  1  0  0  0
 16 17  2  0  0  0
 17 18  1  0  0  0
 18 19  2  0  0  0
 19 23  1  0  0  0
 23 24  2  0  0  0
 23 25  1  0  0  0
 19 20  1  0  0  0
 20 21  1  0  0  0
 20 22  2  0  0  0
  8  9  1  0  0  0
  9 10  2  0  0  0
 10  5  1  0  0  0
 22 16  1  0  0  0
  3  4  1  0  0  0
 25 26  1  0  0  0
M  END
> <minimizedAffinity>
-8.53611

> <CNNscore>
0.2317652702

> <CNNaffinity>
5.0717320442

> <CNN_VS>
1.1754513979

> <CNNaffinity_variance>
0.2608909309

$$$$
[H]OC(=O)c1c([H])c([H])c(C([H])([H])N([H])C(=O)c2c([H])c([H])c(C(C([H])([H])[H])(C([H])([H])[H])C([H])([H])[H])c([H])c2[H])c([H])c1F


 26 27  0  0  0  0  0  0  0  0999 V2000
  -88.0369   30.9863   -2.2672 C   0  0  0  0  0  0  0  0  0  0  0  0
  -88.0346   30.3977   -3.3884 O   0  0  0  0  0  0  0  0  0  0  0  0
  -88.8922   32.0777   -2.0732 N   0  0  0  0  0  0  0  0  0  0  0  0
  -88.8798   32.5435   -1.1141 H   0  0  0  0  0  0  0  0  0  0  0  0
  -85.5367   29.6458    0.9222 C   0  0  0  0  0  0  0  0  0  0  0  0
  -85.7659   30.9905    0.7004 C   0  0  0  0  0  0  0  0  0  0  0  0
  -86.5645   31.4351   -0.3317 C   0  0  0  0  0  0  0  0  0  0  0  0
  -87.1674   30.5401   -1.1890 C   0  0  0  0  0  0  0  0  0  0  0  0
  -86.9648   29.2009   -1.0045 C   0  0  0  0  0  0  0  0  0  0  0  0
  -86.1515   28.7828    0.0507 C   0  0  0  0  0  0  0  0  0  0  0  0
  -84.8379   27.6509    2.1198 C   0  0  0  0  0  0  0  0  0  0  0  0
  -84.6719   29.1554    2.0417 C   0  0  0  0  0  0  0  0  0  0  0  0
  -85.1662   29.7289    3.3489 C   0  0  0  0  0  0  0  0  0  0  0  0
  -83.2218   29.5465    1.8415 C   0  0  0  0  0  0  0  0  0  0  0  0
  -89.8117   32.6419   -3.0158 C   0  0  0  0  0  0  0  0  0  0  0  0
  -89.2126   33.7311   -3.8240 C   0  0  0  0  0  0  0  0  0  0  0  0
  -89.5600   33.7987   -5.1890 C   0  0  0  0  0  0  0  0  0  0  0  0
  -89.0705   34.7953   -5.9924 C   0  0  0  0  0  0  0  0  0  0  0  0
  -88.2134   35.7887   -5.5228 C   0  0  0  0  0  0  0  0  0  0  0  0
  -87.8666   35.7293   -4.1884 C   0  0  0  0  0  0  0  0  0  0  0  0
  -87.0388   36.6762   -3.6782 F   0  0  0  0  0  0  0  0  0  0  0  0
  -88.3703   34.7085   -3.3735 C   0  0  0  0  0  0  0  0  0  0  0  0
  -87.7433   36.8249   -6.4212 C   0  0  0  0  0  0  0  0  0  0  0  0
  -86.8636   36.5110   -7.2706 O   0  0  0  0  0  0  0  0  0  0  0  0
  -88.2338   38.1001   -6.3571 O   0  0  0  0  0  0  0  0  0  0  0  0
  -89.0677   38.4386   -6.8495 H   0  0  0  0  0  0  0  0  0  0  0  0
 11 12  1  0  0  0
 12 13  1  0  0  0
 12 14  1  0  0  0
 12  5  1  0  0  0
  5  6  2  0  0  0
  6  7  1  0  0  0
  7  8  2  0  0  0
  8  1  1  0  0  0
  1  2  2  0  0  0
  1  3  1  0  0  0
  3 15  1  0  0  0
 15 16  1  0  0  0
 16 17  2  0  0  0
 17 18  1  0  0  0
 18 19  2  0  0  0
 19 23  1  0  0  0
 23 24  2  0  0  0
 23 25  1  0  0  0
 19 20  1  0  0  0
 20 21  1  0  0  0
 20 22  2  0  0  0
  8  9  1  0  0  0
  9 10  2  0  0  0
 10  5  1  0  0  0
 22 16  1  0  0  0
  3  4  1  0  0  0
 25 26  1  0  0  0
M  END
> <minimizedAffinity>
-8.07027

> <CNNscore>
0.2253141254

> <CNNaffinity>
5.0521931648

> <CNN_VS>
1.1383304596

> <CNNaffinity_variance>
0.1583293974

$$$$
[H]OC(=O)c1c([H])c([H])c(C([H])([H])N([H])C(=O)c2c([H])c([H])c(C(C([H])([H])[H])(C([H])([H])[H])C([H])([H])[H])c([H])c2[H])c([H])c1F


 26 27  0  0  0  0  0  0  0  0999 V2000
  -88.3441   29.5505   -2.7085 C   0  0  0  0  0  0  0  0  0  0  0  0
  -87.7910   28.7288   -3.4973 O   0  0  0  0  0  0  0  0  0  0  0  0
  -88.8397   29.0893   -1.4829 N   0  0  0  0  0  0  0  0  0  0  0  0
  -89.2882   29.8083   -0.8357 H   0  0  0  0  0  0  0  0  0  0  0  0
  -88.6442   33.6724   -3.7766 C   0  0  0  0  0  0  0  0  0  0  0  0
  -88.5910   33.2707   -2.4553 C   0  0  0  0  0  0  0  0  0  0  0  0
  -88.5028   31.9418   -2.0986 C   0  0  0  0  0  0  0  0  0  0  0  0
  -88.4659   30.9569   -3.0619 C   0  0  0  0  0  0  0  0  0  0  0  0
  -88.5177   31.3125   -4.3808 C   0  0  0  0  0  0  0  0  0  0  0  0
  -88.6056   32.6668   -4.7092 C   0  0  0  0  0  0  0  0  0  0  0  0
  -87.8158   35.8970   -3.2599 C   0  0  0  0  0  0  0  0  0  0  0  0
  -88.7386   35.1134   -4.1717 C   0  0  0  0  0  0  0  0  0  0  0  0
  -90.1427   35.6128   -3.9242 C   0  0  0  0  0  0  0  0  0  0  0  0
  -88.3859   35.3180   -5.6310 C   0  0  0  0  0  0  0  0  0  0  0  0
  -88.7990   27.7502   -0.9756 C   0  0  0  0  0  0  0  0  0  0  0  0
  -89.3217   27.6420    0.4077 C   0  0  0  0  0  0  0  0  0  0  0  0
  -88.7873   26.6293    1.2308 C   0  0  0  0  0  0  0  0  0  0  0  0
  -89.1985   26.4870    2.5303 C   0  0  0  0  0  0  0  0  0  0  0  0
  -90.1537   27.3174    3.1134 C   0  0  0  0  0  0  0  0  0  0  0  0
  -90.6835   28.3103    2.3146 C   0  0  0  0  0  0  0  0  0  0  0  0
  -91.6136   29.1508    2.8349 F   0  0  0  0  0  0  0  0  0  0  0  0
  -90.2589   28.4499    0.9880 C   0  0  0  0  0  0  0  0  0  0  0  0
  -90.5339   27.1241    4.4990 C   0  0  0  0  0  0  0  0  0  0  0  0
  -90.1441   27.9812    5.3400 O   0  0  0  0  0  0  0  0  0  0  0  0
  -91.2905   26.0529    4.8875 O   0  0  0  0  0  0  0  0  0  0  0  0
  -92.3159   26.0233    4.8916 H   0  0  0  0  0  0  0  0  0  0  0  0
 11 12  1  0  0  0
 12 13  1  0  0  0
 12 14  1  0  0  0
 12  5  1  0  0  0
  5  6  2  0  0  0
  6  7  1  0  0  0
  7  8  2  0  0  0
  8  1  1  0  0  0
  1  2  2  0  0  0
  1  3  1  0  0  0
  3 15  1  0  0  0
 15 16  1  0  0  0
 16 17  2  0  0  0
 17 18  1  0  0  0
 18 19  2  0  0  0
 19 23  1  0  0  0
 23 24  2  0  0  0
 23 25  1  0  0  0
 19 20  1  0  0  0
 20 21  1  0  0  0
 20 22  2  0  0  0
  8  9  1  0  0  0
  9 10  2  0  0  0
 10  5  1  0  0  0
 22 16  1  0  0  0
  3  4  1  0  0  0
 25 26  1  0  0  0
M  END
> <minimizedAffinity>
-7.60172

> <CNNscore>
0.2246388197

> <CNNaffinity>
5.0275039673

> <CNN_VS>
1.1293725967

> <CNNaffinity_variance>
0.1167291179

$$$$
[H]OC(=O)c1c([H])c([H])c(C([H])([H])N([H])C(=O)c2c([H])c([H])c(C(C([H])([H])[H])(C([H])([H])[H])C([H])([H])[H])c([H])c2[H])c([H])c1F


 26 27  0  0  0  0  0  0  0  0999 V2000
  -88.2964   29.5031   -2.3300 C   0  0  0  0  0  0  0  0  0  0  0  0
  -88.0400   29.6254   -3.5640 O   0  0  0  0  0  0  0  0  0  0  0  0
  -89.5837   29.1172   -1.9372 N   0  0  0  0  0  0  0  0  0  0  0  0
  -89.7640   29.0107   -0.8917 H   0  0  0  0  0  0  0  0  0  0  0  0
  -85.2625   30.2842    0.5693 C   0  0  0  0  0  0  0  0  0  0  0  0
  -85.5153   29.0035    0.1156 C   0  0  0  0  0  0  0  0  0  0  0  0
  -86.4984   28.7385   -0.8140 C   0  0  0  0  0  0  0  0  0  0  0  0
  -87.2729   29.7565   -1.3271 C   0  0  0  0  0  0  0  0  0  0  0  0
  -87.0554   31.0377   -0.9030 C   0  0  0  0  0  0  0  0  0  0  0  0
  -86.0515   31.2732    0.0385 C   0  0  0  0  0  0  0  0  0  0  0  0
  -84.8623   31.2511    2.7618 C   0  0  0  0  0  0  0  0  0  0  0  0
  -84.1958   30.5800    1.5775 C   0  0  0  0  0  0  0  0  0  0  0  0
  -83.2136   31.5696    0.9963 C   0  0  0  0  0  0  0  0  0  0  0  0
  -83.4544   29.3254    1.9924 C   0  0  0  0  0  0  0  0  0  0  0  0
  -90.7013   28.8238   -2.7841 C   0  0  0  0  0  0  0  0  0  0  0  0
  -91.0768   27.3895   -2.7663 C   0  0  0  0  0  0  0  0  0  0  0  0
  -90.3986   26.5477   -1.8609 C   0  0  0  0  0  0  0  0  0  0  0  0
  -90.7123   25.2170   -1.7654 C   0  0  0  0  0  0  0  0  0  0  0  0
  -91.7030   24.6190   -2.5418 C   0  0  0  0  0  0  0  0  0  0  0  0
  -92.3707   25.4351   -3.4321 C   0  0  0  0  0  0  0  0  0  0  0  0
  -93.3493   24.9043   -4.2086 F   0  0  0  0  0  0  0  0  0  0  0  0
  -92.0452   26.7934   -3.5245 C   0  0  0  0  0  0  0  0  0  0  0  0
  -91.9975   23.2086   -2.3811 C   0  0  0  0  0  0  0  0  0  0  0  0
  -91.8640   22.4621   -3.3904 O   0  0  0  0  0  0  0  0  0  0  0  0
  -92.4043   22.6980   -1.1791 O   0  0  0  0  0  0  0  0  0  0  0  0
  -91.7802   22.3681   -0.4349 H   0  0  0  0  0  0  0  0  0  0  0  0
 11 12  1  0  0  0
 12 13  1  0  0  0
 12 14  1  0  0  0
 12  5  1  0  0  0
  5  6  2  0  0  0
  6  7  1  0  0  0
  7  8  2  0  0  0
  8  1  1  0  0  0
  1  2  2  0  0  0
  1  3  1  0  0  0
  3 15  1  0  0  0
 15 16  1  0  0  0
 16 17  2  0  0  0
 17 18  1  0  0  0
 18 19  2  0  0  0
 19 23  1  0  0  0
 23 24  2  0  0  0
 23 25  1  0  0  0
 19 20  1  0  0  0
 20 21  1  0  0  0
 20 22  2  0  0  0
  8  9  1  0  0  0
  9 10  2  0  0  0
 10  5  1  0  0  0
 22 16  1  0  0  0
  3  4  1  0  0  0
 25 26  1  0  0  0
M  END
> <minimizedAffinity>
-8.22329

> <CNNscore>
0.2203606963

> <CNNaffinity>
5.0141992569

> <CNN_VS>
1.1049324274

> <CNNaffinity_variance>
0.2451592982

$$$$
[H]OC(=O)c1c([H])c([H])c(C([H])([H])N([H])C(=O)c2c([H])c([H])c(C(C([H])([H])[H])(C([H])([H])[H])C([H])([H])[H])c([H])c2[H])c([H])c1F


 26 27  0  0  0  0  0  0  0  0999 V2000
  -86.5981   30.8805   -0.1013 C   0  0  0  0  0  0  0  0  0  0  0  0
  -85.8571   31.1932    0.8767 O   0  0  0  0  0  0  0  0  0  0  0  0
  -86.9329   29.5354   -0.2989 N   0  0  0  0  0  0  0  0  0  0  0  0
  -87.5688   29.3064   -1.1236 H   0  0  0  0  0  0  0  0  0  0  0  0
  -88.0619   33.9124   -2.7253 C   0  0  0  0  0  0  0  0  0  0  0  0
  -88.8632   32.8640   -2.3148 C   0  0  0  0  0  0  0  0  0  0  0  0
  -88.3985   31.8747   -1.4745 C   0  0  0  0  0  0  0  0  0  0  0  0
  -87.1007   31.8987   -1.0114 C   0  0  0  0  0  0  0  0  0  0  0  0
  -86.2750   32.9183   -1.3954 C   0  0  0  0  0  0  0  0  0  0  0  0
  -86.7763   33.9055   -2.2462 C   0  0  0  0  0  0  0  0  0  0  0  0
  -88.0353   34.6911   -5.0264 C   0  0  0  0  0  0  0  0  0  0  0  0
  -88.5597   34.9912   -3.6365 C   0  0  0  0  0  0  0  0  0  0  0  0
  -87.9742   36.3180   -3.2136 C   0  0  0  0  0  0  0  0  0  0  0  0
  -90.0719   35.0845   -3.6193 C   0  0  0  0  0  0  0  0  0  0  0  0
  -86.5347   28.4129    0.4971 C   0  0  0  0  0  0  0  0  0  0  0  0
  -87.6601   27.8167    1.2564 C   0  0  0  0  0  0  0  0  0  0  0  0
  -87.3763   26.7122    2.0858 C   0  0  0  0  0  0  0  0  0  0  0  0
  -88.3587   26.1274    2.8415 C   0  0  0  0  0  0  0  0  0  0  0  0
  -89.6778   26.5766    2.8404 C   0  0  0  0  0  0  0  0  0  0  0  0
  -89.9651   27.6561    2.0301 C   0  0  0  0  0  0  0  0  0  0  0  0
  -91.2337   28.1375    1.9961 F   0  0  0  0  0  0  0  0  0  0  0  0
  -88.9568   28.2486    1.2608 C   0  0  0  0  0  0  0  0  0  0  0  0
  -90.6668   25.9236    3.6754 C   0  0  0  0  0  0  0  0  0  0  0  0
  -91.0721   26.5422    4.6987 O   0  0  0  0  0  0  0  0  0  0  0  0
  -91.1496   24.6810    3.3693 O   0  0  0  0  0  0  0  0  0  0  0  0
  -91.9491   24.4919    2.7549 H   0  0  0  0  0  0  0  0  0  0  0  0
 11 12  1  0  0  0
 12 13  1  0  0  0
 12 14  1  0  0  0
 12  5  1  0  0  0
  5  6  2  0  0  0
  6  7  1  0  0  0
  7  8  2  0  0  0
  8  1  1  0  0  0
  1  2  2  0  0  0
  1  3  1  0  0  0
  3 15  1  0  0  0
 15 16  1  0  0  0
 16 17  2  0  0  0
 17 18  1  0  0  0
 18 19  2  0  0  0
 19 23  1  0  0  0
 23 24  2  0  0  0
 23 25  1  0  0  0
 19 20  1  0  0  0
 20 21  1  0  0  0
 20 22  2  0  0  0
  8  9  1  0  0  0
  9 10  2  0  0  0
 10  5  1  0  0  0
 22 16  1  0  0  0
  3  4  1  0  0  0
 25 26  1  0  0  0
M  END
> <minimizedAffinity>
-7.33728

> <CNNscore>
0.1990454793

> <CNNaffinity>
5.2298717499

> <CNN_VS>
1.0409823656

> <CNNaffinity_variance>
0.0680551380

$$$$
[H]Oc1c([H])c(O[H])c([H])c([C@@]([H])(O[H])C([H])([H])N([H])[C@@]([H])(C([H])([H])[H])C([H])([H])c2c([H])c([H])c(OC([H])([H])[H])c([H])c2[H])c1[H]


 27 28  0  0  0  0  0  0  0  0999 V2000
  -86.1461   33.6223   -1.3558 C   0  0  0  0  0  0  0  0  0  0  0  0
  -84.9520   33.3881   -0.4988 C   0  0  0  0  0  0  0  0  0  0  0  0
  -83.7730   33.4515   -1.3302 O   0  0  0  0  0  0  0  0  0  0  0  0
  -83.2820   34.2318   -1.0260 H   0  0  0  0  0  0  0  0  0  0  0  0
  -84.8681   32.0164    0.0961 C   0  0  0  0  0  0  0  0  0  0  0  0
  -83.7383   31.5009    0.6589 C   0  0  0  0  0  0  0  0  0  0  0  0
  -83.7036   30.2138    1.2068 C   0  0  0  0  0  0  0  0  0  0  0  0
  -82.5648   29.6759    1.7815 O   0  0  0  0  0  0  0  0  0  0  0  0
  -84.8493   29.4604    1.1691 C   0  0  0  0  0  0  0  0  0  0  0  0
  -86.0157   29.9253    0.6164 C   0  0  0  0  0  0  0  0  0  0  0  0
  -87.1558   29.1329    0.5974 O   0  0  0  0  0  0  0  0  0  0  0  0
  -86.0031   31.1988    0.0886 C   0  0  0  0  0  0  0  0  0  0  0  0
  -82.4614   29.8560    2.7928 H   0  0  0  0  0  0  0  0  0  0  0  0
  -87.7610   29.2352    1.4261 H   0  0  0  0  0  0  0  0  0  0  0  0
  -86.0546   33.5009   -2.7379 N   0  0  0  0  0  0  0  0  0  0  0  0
  -85.1219   33.7506   -3.1531 H   0  0  0  0  0  0  0  0  0  0  0  0
  -87.1373   33.5306   -3.6034 C   0  0  0  0  0  0  0  0  0  0  0  0
  -87.5716   32.1672   -4.0595 C   0  0  0  0  0  0  0  0  0  0  0  0
  -88.3094   34.3807   -3.1952 C   0  0  0  0  0  0  0  0  0  0  0  0
  -89.3264   36.9914   -6.4777 C   0  0  0  0  0  0  0  0  0  0  0  0
  -88.1157   36.3330   -6.4277 C   0  0  0  0  0  0  0  0  0  0  0  0
  -87.7901   35.4925   -5.3759 C   0  0  0  0  0  0  0  0  0  0  0  0
  -88.6665   35.2765   -4.3276 C   0  0  0  0  0  0  0  0  0  0  0  0
  -89.8791   35.9351   -4.3763 C   0  0  0  0  0  0  0  0  0  0  0  0
  -90.1970   36.7732   -5.4308 C   0  0  0  0  0  0  0  0  0  0  0  0
  -90.0248   37.3577   -8.8025 C   0  0  0  0  0  0  0  0  0  0  0  0
  -89.6774   37.8416   -7.5246 O   0  0  0  0  0  0  0  0  0  0  0  0
 26 27  1  0  0  0
 27 20  1  0  0  0
 20 21  2  0  0  0
 21 22  1  0  0  0
 22 23  2  0  0  0
 23 19  1  0  0  0
 19 17  1  0  0  0
 17 18  1  0  0  0
 17 15  1  0  0  0
 15  1  1  0  0  0
  1  2  1  0  0  0
  2  3  1  0  0  0
  2  5  1  0  0  0
  5  6  2  0  0  0
  6  7  1  0  0  0
  7  8  1  0  0  0
  7  9  2  0  0  0
  9 10  1  0  0  0
 10 11  1  0  0  0
 10 12  2  0  0  0
 23 24  1  0  0  0
 24 25  2  0  0  0
 25 20  1  0  0  0
 12  5  1  0  0  0
 15 16  1  0  0  0
  3  4  1  0  0  0
  8 13  1  0  0  0
 11 14  1  0  0  0
M  END
> <minimizedAffinity>
-6.81740

> <CNNscore>
0.4911961854

> <CNNaffinity>
4.9310784340

> <CNN_VS>
2.4221270084

> <CNNaffinity_variance>
0.2564839423

$$$$
[H]Oc1c([H])c(O[H])c([H])c([C@@]([H])(O[H])C([H])([H])N([H])[C@@]([H])(C([H])([H])[H])C([H])([H])c2c([H])c([H])c(OC([H])([H])[H])c([H])c2[H])c1[H]


 27 28  0  0  0  0  0  0  0  0999 V2000
  -87.3538   30.4143   -0.0978 C   0  0  0  0  0  0  0  0  0  0  0  0
  -86.7508   29.0882    0.2072 C   0  0  0  0  0  0  0  0  0  0  0  0
  -87.5620   28.4364    1.2085 O   0  0  0  0  0  0  0  0  0  0  0  0
  -87.9446   27.6603    0.7685 H   0  0  0  0  0  0  0  0  0  0  0  0
  -85.4028   29.1483    0.8564 C   0  0  0  0  0  0  0  0  0  0  0  0
  -84.5129   30.1635    0.6658 C   0  0  0  0  0  0  0  0  0  0  0  0
  -83.2631   30.1822    1.2947 C   0  0  0  0  0  0  0  0  0  0  0  0
  -82.3487   31.2053    1.1115 O   0  0  0  0  0  0  0  0  0  0  0  0
  -82.9383   29.1403    2.1258 C   0  0  0  0  0  0  0  0  0  0  0  0
  -83.7922   28.0917    2.3565 C   0  0  0  0  0  0  0  0  0  0  0  0
  -83.4278   27.0549    3.2053 O   0  0  0  0  0  0  0  0  0  0  0  0
  -85.0124   28.1155    1.7154 C   0  0  0  0  0  0  0  0  0  0  0  0
  -82.4346   31.9898    1.7771 H   0  0  0  0  0  0  0  0  0  0  0  0
  -83.6860   27.2007    4.1930 H   0  0  0  0  0  0  0  0  0  0  0  0
  -87.5470   30.8124   -1.4159 N   0  0  0  0  0  0  0  0  0  0  0  0
  -86.9548   30.3175   -2.1294 H   0  0  0  0  0  0  0  0  0  0  0  0
  -88.0693   32.0385   -1.7987 C   0  0  0  0  0  0  0  0  0  0  0  0
  -89.2005   32.5014   -0.9261 C   0  0  0  0  0  0  0  0  0  0  0  0
  -87.0832   33.1430   -2.0645 C   0  0  0  0  0  0  0  0  0  0  0  0
  -88.7038   35.7557   -5.0931 C   0  0  0  0  0  0  0  0  0  0  0  0
  -88.5729   34.3993   -5.3050 C   0  0  0  0  0  0  0  0  0  0  0  0
  -88.0556   33.5599   -4.3321 C   0  0  0  0  0  0  0  0  0  0  0  0
  -87.6469   34.0462   -3.1031 C   0  0  0  0  0  0  0  0  0  0  0  0
  -87.7775   35.4041   -2.8896 C   0  0  0  0  0  0  0  0  0  0  0  0
  -88.2953   36.2362   -3.8668 C   0  0  0  0  0  0  0  0  0  0  0  0
  -88.8593   37.9820   -6.1158 C   0  0  0  0  0  0  0  0  0  0  0  0
  -89.2212   36.6207   -6.0555 O   0  0  0  0  0  0  0  0  0  0  0  0
 26 27  1  0  0  0
 27 20  1  0  0  0
 20 21  2  0  0  0
 21 22  1  0  0  0
 22 23  2  0  0  0
 23 19  1  0  0  0
 19 17  1  0  0  0
 17 18  1  0  0  0
 17 15  1  0  0  0
 15  1  1  0  0  0
  1  2  1  0  0  0
  2  3  1  0  0  0
  2  5  1  0  0  0
  5  6  2  0  0  0
  6  7  1  0  0  0
  7  8  1  0  0  0
  7  9  2  0  0  0
  9 10  1  0  0  0
 10 11  1  0  0  0
 10 12  2  0  0  0
 23 24  1  0  0  0
 24 25  2  0  0  0
 25 20  1  0  0  0
 12  5  1  0  0  0
 15 16  1  0  0  0
  3  4  1  0  0  0
  8 13  1  0  0  0
 11 14  1  0  0  0
M  END
> <minimizedAffinity>
-7.13632

> <CNNscore>
0.3704155684

> <CNNaffinity>
5.1559724808

> <CNN_VS>
1.9098525047

> <CNNaffinity_variance>
0.0894168466

$$$$
[H]Oc1c([H])c(O[H])c([H])c([C@@]([H])(O[H])C([H])([H])N([H])[C@@]([H])(C([H])([H])[H])C([H])([H])c2c([H])c([H])c(OC([H])([H])[H])c([H])c2[H])c1[H]


 27 28  0  0  0  0  0  0  0  0999 V2000
  -86.9413   29.5418   -0.9653 C   0  0  0  0  0  0  0  0  0  0  0  0
  -86.7974   28.5909    0.1706 C   0  0  0  0  0  0  0  0  0  0  0  0
  -87.7759   28.9294    1.1772 O   0  0  0  0  0  0  0  0  0  0  0  0
  -88.3876   28.1763    1.2089 H   0  0  0  0  0  0  0  0  0  0  0  0
  -85.5022   28.6964    0.9146 C   0  0  0  0  0  0  0  0  0  0  0  0
  -85.0476   27.7507    1.7853 C   0  0  0  0  0  0  0  0  0  0  0  0
  -83.8287   27.8873    2.4586 C   0  0  0  0  0  0  0  0  0  0  0  0
  -83.3534   26.9366    3.3456 O   0  0  0  0  0  0  0  0  0  0  0  0
  -83.0796   29.0124    2.2246 C   0  0  0  0  0  0  0  0  0  0  0  0
  -83.4847   29.9973    1.3598 C   0  0  0  0  0  0  0  0  0  0  0  0
  -82.6984   31.1220    1.1484 O   0  0  0  0  0  0  0  0  0  0  0  0
  -84.6924   29.8201    0.7190 C   0  0  0  0  0  0  0  0  0  0  0  0
  -82.7688   26.1993    2.9208 H   0  0  0  0  0  0  0  0  0  0  0  0
  -82.0164   31.0282    0.3805 H   0  0  0  0  0  0  0  0  0  0  0  0
  -87.7663   30.6551   -0.8502 N   0  0  0  0  0  0  0  0  0  0  0  0
  -88.3114   30.7234    0.0458 H   0  0  0  0  0  0  0  0  0  0  0  0
  -88.2575   31.3842   -1.9223 C   0  0  0  0  0  0  0  0  0  0  0  0
  -88.9491   30.5362   -2.9510 C   0  0  0  0  0  0  0  0  0  0  0  0
  -89.0498   32.6207   -1.5962 C   0  0  0  0  0  0  0  0  0  0  0  0
  -87.9687   35.7377   -4.3783 C   0  0  0  0  0  0  0  0  0  0  0  0
  -87.0121   35.0165   -3.6952 C   0  0  0  0  0  0  0  0  0  0  0  0
  -87.3585   34.0139   -2.8044 C   0  0  0  0  0  0  0  0  0  0  0  0
  -88.6815   33.6915   -2.5605 C   0  0  0  0  0  0  0  0  0  0  0  0
  -89.6404   34.4128   -3.2438 C   0  0  0  0  0  0  0  0  0  0  0  0
  -89.2861   35.4131   -4.1322 C   0  0  0  0  0  0  0  0  0  0  0  0
  -87.4781   36.5059   -6.6577 C   0  0  0  0  0  0  0  0  0  0  0  0
  -87.6457   36.7506   -5.2794 O   0  0  0  0  0  0  0  0  0  0  0  0
 26 27  1  0  0  0
 27 20  1  0  0  0
 20 21  2  0  0  0
 21 22  1  0  0  0
 22 23  2  0  0  0
 23 19  1  0  0  0
 19 17  1  0  0  0
 17 18  1  0  0  0
 17 15  1  0  0  0
 15  1  1  0  0  0
  1  2  1  0  0  0
  2  3  1  0  0  0
  2  5  1  0  0  0
  5  6  2  0  0  0
  6  7  1  0  0  0
  7  8  1  0  0  0
  7  9  2  0  0  0
  9 10  1  0  0  0
 10 11  1  0  0  0
 10 12  2  0  0  0
 23 24  1  0  0  0
 24 25  2  0  0  0
 25 20  1  0  0  0
 12  5  1  0  0  0
 15 16  1  0  0  0
  3  4  1  0  0  0
  8 13  1  0  0  0
 11 14  1  0  0  0
M  END
> <minimizedAffinity>
-7.05808

> <CNNscore>
0.3638116419

> <CNNaffinity>
5.1035175323

> <CNN_VS>
1.8567191362

> <CNNaffinity_variance>
0.0838470310

$$$$
[H]Oc1c([H])c(O[H])c([H])c([C@@]([H])(O[H])C([H])([H])N([H])[C@@]([H])(C([H])([H])[H])C([H])([H])c2c([H])c([H])c(OC([H])([H])[H])c([H])c2[H])c1[H]


 27 28  0  0  0  0  0  0  0  0999 V2000
  -88.6283   27.9570    1.2779 C   0  0  0  0  0  0  0  0  0  0  0  0
  -87.3949   27.2951    0.7721 C   0  0  0  0  0  0  0  0  0  0  0  0
  -87.3640   25.9412    1.2736 O   0  0  0  0  0  0  0  0  0  0  0  0
  -87.4513   25.3723    0.4919 H   0  0  0  0  0  0  0  0  0  0  0  0
  -86.1157   27.8737    1.2929 C   0  0  0  0  0  0  0  0  0  0  0  0
  -85.1944   27.1625    2.0030 C   0  0  0  0  0  0  0  0  0  0  0  0
  -84.0091   27.7418    2.4694 C   0  0  0  0  0  0  0  0  0  0  0  0
  -83.0641   27.0337    3.1917 O   0  0  0  0  0  0  0  0  0  0  0  0
  -83.7817   29.0665    2.1952 C   0  0  0  0  0  0  0  0  0  0  0  0
  -84.6712   29.8326    1.4854 C   0  0  0  0  0  0  0  0  0  0  0  0
  -84.4055   31.1708    1.2272 O   0  0  0  0  0  0  0  0  0  0  0  0
  -85.8253   29.2197    1.0461 C   0  0  0  0  0  0  0  0  0  0  0  0
  -82.3385   26.5705    2.6218 H   0  0  0  0  0  0  0  0  0  0  0  0
  -83.8902   31.3425    0.3505 H   0  0  0  0  0  0  0  0  0  0  0  0
  -89.5682   28.4660    0.3888 N   0  0  0  0  0  0  0  0  0  0  0  0
  -90.3846   27.8366    0.1840 H   0  0  0  0  0  0  0  0  0  0  0  0
  -89.3108   29.4575   -0.5456 C   0  0  0  0  0  0  0  0  0  0  0  0
  -89.6766   29.0627   -1.9476 C   0  0  0  0  0  0  0  0  0  0  0  0
  -89.7916   30.8439   -0.2142 C   0  0  0  0  0  0  0  0  0  0  0  0
  -87.4227   33.7043   -2.4122 C   0  0  0  0  0  0  0  0  0  0  0  0
  -86.8652   32.9013   -1.4395 C   0  0  0  0  0  0  0  0  0  0  0  0
  -87.6245   31.9809   -0.7359 C   0  0  0  0  0  0  0  0  0  0  0  0
  -88.9777   31.8266   -0.9784 C   0  0  0  0  0  0  0  0  0  0  0  0
  -89.5373   32.6300   -1.9521 C   0  0  0  0  0  0  0  0  0  0  0  0
  -88.7718   33.5472   -2.6508 C   0  0  0  0  0  0  0  0  0  0  0  0
  -87.2881   35.6155   -3.9471 C   0  0  0  0  0  0  0  0  0  0  0  0
  -86.6803   34.6373   -3.1337 O   0  0  0  0  0  0  0  0  0  0  0  0
 26 27  1  0  0  0
 27 20  1  0  0  0
 20 21  2  0  0  0
 21 22  1  0  0  0
 22 23  2  0  0  0
 23 19  1  0  0  0
 19 17  1  0  0  0
 17 18  1  0  0  0
 17 15  1  0  0  0
 15  1  1  0  0  0
  1  2  1  0  0  0
  2  3  1  0  0  0
  2  5  1  0  0  0
  5  6  2  0  0  0
  6  7  1  0  0  0
  7  8  1  0  0  0
  7  9  2  0  0  0
  9 10  1  0  0  0
 10 11  1  0  0  0
 10 12  2  0  0  0
 23 24  1  0  0  0
 24 25  2  0  0  0
 25 20  1  0  0  0
 12  5  1  0  0  0
 15 16  1  0  0  0
  3  4  1  0  0  0
  8 13  1  0  0  0
 11 14  1  0  0  0
M  END
> <minimizedAffinity>
-7.22852

> <CNNscore>
0.3275843859

> <CNNaffinity>
5.3463335037

> <CNN_VS>
1.7513754368

> <CNNaffinity_variance>
0.1143791676

$$$$
[H]Oc1c([H])c(O[H])c([H])c([C@@]([H])(O[H])C([H])([H])N([H])[C@@]([H])(C([H])([H])[H])C([H])([H])c2c([H])c([H])c(OC([H])([H])[H])c([H])c2[H])c1[H]


 27 28  0  0  0  0  0  0  0  0999 V2000
  -88.3439   31.0773   -1.5254 C   0  0  0  0  0  0  0  0  0  0  0  0
  -87.5356   29.9695   -2.1038 C   0  0  0  0  0  0  0  0  0  0  0  0
  -88.1773   29.5202   -3.3169 O   0  0  0  0  0  0  0  0  0  0  0  0
  -87.5628   29.7437   -4.0344 H   0  0  0  0  0  0  0  0  0  0  0  0
  -87.4900   28.7266   -1.2698 C   0  0  0  0  0  0  0  0  0  0  0  0
  -86.9159   28.6617   -0.0349 C   0  0  0  0  0  0  0  0  0  0  0  0
  -86.8975   27.4794    0.7133 C   0  0  0  0  0  0  0  0  0  0  0  0
  -86.3187   27.3970    1.9680 O   0  0  0  0  0  0  0  0  0  0  0  0
  -87.4793   26.3602    0.1741 C   0  0  0  0  0  0  0  0  0  0  0  0
  -88.0722   26.3646   -1.0630 C   0  0  0  0  0  0  0  0  0  0  0  0
  -88.6515   25.2113   -1.5752 O   0  0  0  0  0  0  0  0  0  0  0  0
  -88.0664   27.5517   -1.7640 C   0  0  0  0  0  0  0  0  0  0  0  0
  -86.9531   27.6091    2.7544 H   0  0  0  0  0  0  0  0  0  0  0  0
  -89.6478   25.0917   -1.3370 H   0  0  0  0  0  0  0  0  0  0  0  0
  -87.7186   32.1813   -0.9568 N   0  0  0  0  0  0  0  0  0  0  0  0
  -88.3591   32.8790   -0.5010 H   0  0  0  0  0  0  0  0  0  0  0  0
  -86.4642   32.6479   -1.3190 C   0  0  0  0  0  0  0  0  0  0  0  0
  -86.4804   33.4960   -2.5583 C   0  0  0  0  0  0  0  0  0  0  0  0
  -85.6304   33.2677   -0.2311 C   0  0  0  0  0  0  0  0  0  0  0  0
  -83.1460   30.1957    1.5053 C   0  0  0  0  0  0  0  0  0  0  0  0
  -82.7231   30.9405    0.4244 C   0  0  0  0  0  0  0  0  0  0  0  0
  -83.5190   31.9287   -0.1314 C   0  0  0  0  0  0  0  0  0  0  0  0
  -84.7750   32.2123    0.3743 C   0  0  0  0  0  0  0  0  0  0  0  0
  -85.1996   31.4673    1.4566 C   0  0  0  0  0  0  0  0  0  0  0  0
  -84.3985   30.4816    2.0062 C   0  0  0  0  0  0  0  0  0  0  0  0
  -82.8990   27.9490    2.4634 C   0  0  0  0  0  0  0  0  0  0  0  0
  -82.3642   29.1966    2.0822 O   0  0  0  0  0  0  0  0  0  0  0  0
 26 27  1  0  0  0
 27 20  1  0  0  0
 20 21  2  0  0  0
 21 22  1  0  0  0
 22 23  2  0  0  0
 23 19  1  0  0  0
 19 17  1  0  0  0
 17 18  1  0  0  0
 17 15  1  0  0  0
 15  1  1  0  0  0
  1  2  1  0  0  0
  2  3  1  0  0  0
  2  5  1  0  0  0
  5  6  2  0  0  0
  6  7  1  0  0  0
  7  8  1  0  0  0
  7  9  2  0  0  0
  9 10  1  0  0  0
 10 11  1  0  0  0
 10 12  2  0  0  0
 23 24  1  0  0  0
 24 25  2  0  0  0
 25 20  1  0  0  0
 12  5  1  0  0  0
 15 16  1  0  0  0
  3  4  1  0  0  0
  8 13  1  0  0  0
 11 14  1  0  0  0
M  END
> <minimizedAffinity>
-7.89020

> <CNNscore>
0.3224030137

> <CNNaffinity>
5.4598670006

> <CNN_VS>
1.7602776289

> <CNNaffinity_variance>
0.3330850601

$$$$
[H]Oc1c([H])c(O[H])c([H])c([C@@]([H])(O[H])C([H])([H])N([H])[C@@]([H])(C([H])([H])[H])C([H])([H])c2c([H])c([H])c(OC([H])([H])[H])c([H])c2[H])c1[H]


 27 28  0  0  0  0  0  0  0  0999 V2000
  -87.9871   29.3638    0.3518 C   0  0  0  0  0  0  0  0  0  0  0  0
  -87.1436   28.1522    0.5405 C   0  0  0  0  0  0  0  0  0  0  0  0
  -87.7631   27.3149    1.5407 O   0  0  0  0  0  0  0  0  0  0  0  0
  -88.0314   26.5072    1.0737 H   0  0  0  0  0  0  0  0  0  0  0  0
  -85.7883   28.4174    1.1194 C   0  0  0  0  0  0  0  0  0  0  0  0
  -85.1401   27.5601    1.9584 C   0  0  0  0  0  0  0  0  0  0  0  0
  -83.8716   27.8456    2.4753 C   0  0  0  0  0  0  0  0  0  0  0  0
  -83.2005   26.9860    3.3281 O   0  0  0  0  0  0  0  0  0  0  0  0
  -83.2751   29.0278    2.1174 C   0  0  0  0  0  0  0  0  0  0  0  0
  -83.8778   29.9293    1.2771 C   0  0  0  0  0  0  0  0  0  0  0  0
  -83.2418   31.1159    0.9372 O   0  0  0  0  0  0  0  0  0  0  0  0
  -85.1272   29.6060    0.7923 C   0  0  0  0  0  0  0  0  0  0  0  0
  -82.5965   26.2922    2.8595 H   0  0  0  0  0  0  0  0  0  0  0  0
  -82.6480   31.0565    0.0960 H   0  0  0  0  0  0  0  0  0  0  0  0
  -88.6351   29.5881   -0.8578 N   0  0  0  0  0  0  0  0  0  0  0  0
  -88.8572   28.7273   -1.4184 H   0  0  0  0  0  0  0  0  0  0  0  0
  -88.5977   30.7829   -1.5604 C   0  0  0  0  0  0  0  0  0  0  0  0
  -88.2282   31.9626   -0.7077 C   0  0  0  0  0  0  0  0  0  0  0  0
  -87.8464   30.7807   -2.8636 C   0  0  0  0  0  0  0  0  0  0  0  0
  -89.5159   33.8339   -5.4162 C   0  0  0  0  0  0  0  0  0  0  0  0
  -88.2443   33.9455   -4.8944 C   0  0  0  0  0  0  0  0  0  0  0  0
  -87.7068   32.9644   -4.0775 C   0  0  0  0  0  0  0  0  0  0  0  0
  -88.4234   31.8276   -3.7487 C   0  0  0  0  0  0  0  0  0  0  0  0
  -89.6968   31.7145   -4.2705 C   0  0  0  0  0  0  0  0  0  0  0  0
  -90.2266   32.6993   -5.0860 C   0  0  0  0  0  0  0  0  0  0  0  0
  -91.1965   34.5446   -7.0585 C   0  0  0  0  0  0  0  0  0  0  0  0
  -90.0788   34.8068   -6.2402 O   0  0  0  0  0  0  0  0  0  0  0  0
 26 27  1  0  0  0
 27 20  1  0  0  0
 20 21  2  0  0  0
 21 22  1  0  0  0
 22 23  2  0  0  0
 23 19  1  0  0  0
 19 17  1  0  0  0
 17 18  1  0  0  0
 17 15  1  0  0  0
 15  1  1  0  0  0
  1  2  1  0  0  0
  2  3  1  0  0  0
  2  5  1  0  0  0
  5  6  2  0  0  0
  6  7  1  0  0  0
  7  8  1  0  0  0
  7  9  2  0  0  0
  9 10  1  0  0  0
 10 11  1  0  0  0
 10 12  2  0  0  0
 23 24  1  0  0  0
 24 25  2  0  0  0
 25 20  1  0  0  0
 12  5  1  0  0  0
 15 16  1  0  0  0
  3  4  1  0  0  0
  8 13  1  0  0  0
 11 14  1  0  0  0
M  END
> <minimizedAffinity>
-6.86038

> <CNNscore>
0.3194760978

> <CNNaffinity>
5.3082365990

> <CNN_VS>
1.6958546638

> <CNNaffinity_variance>
0.1971819699

$$$$
[H]Oc1c([H])c(O[H])c([H])c([C@@]([H])(O[H])C([H])([H])N([H])[C@@]([H])(C([H])([H])[H])C([H])([H])c2c([H])c([H])c(OC([H])([H])[H])c([H])c2[H])c1[H]


 27 28  0  0  0  0  0  0  0  0999 V2000
  -87.7436   32.4944   -4.3024 C   0  0  0  0  0  0  0  0  0  0  0  0
  -87.8516   31.0201   -4.4746 C   0  0  0  0  0  0  0  0  0  0  0  0
  -88.9711   30.7419   -5.3434 O   0  0  0  0  0  0  0  0  0  0  0  0
  -88.5868   30.3572   -6.1476 H   0  0  0  0  0  0  0  0  0  0  0  0
  -88.2016   30.2685   -3.2276 C   0  0  0  0  0  0  0  0  0  0  0  0
  -89.0096   30.7608   -2.2460 C   0  0  0  0  0  0  0  0  0  0  0  0
  -89.3139   30.0233   -1.0964 C   0  0  0  0  0  0  0  0  0  0  0  0
  -90.1322   30.5089   -0.0909 O   0  0  0  0  0  0  0  0  0  0  0  0
  -88.7753   28.7683   -0.9681 C   0  0  0  0  0  0  0  0  0  0  0  0
  -87.9562   28.2199   -1.9222 C   0  0  0  0  0  0  0  0  0  0  0  0
  -87.4302   26.9455   -1.7570 O   0  0  0  0  0  0  0  0  0  0  0  0
  -87.6839   28.9829   -3.0377 C   0  0  0  0  0  0  0  0  0  0  0  0
  -91.1363   30.2989   -0.2079 H   0  0  0  0  0  0  0  0  0  0  0  0
  -88.0184   26.1881   -2.1363 H   0  0  0  0  0  0  0  0  0  0  0  0
  -86.6458   33.0480   -3.6530 N   0  0  0  0  0  0  0  0  0  0  0  0
  -85.7652   32.4750   -3.6847 H   0  0  0  0  0  0  0  0  0  0  0  0
  -86.7245   33.9933   -2.6418 C   0  0  0  0  0  0  0  0  0  0  0  0
  -87.4969   35.2202   -3.0337 C   0  0  0  0  0  0  0  0  0  0  0  0
  -87.1218   33.4972   -1.2783 C   0  0  0  0  0  0  0  0  0  0  0  0
  -83.7754   31.4278    0.4946 C   0  0  0  0  0  0  0  0  0  0  0  0
  -85.0564   30.9221    0.5658 C   0  0  0  0  0  0  0  0  0  0  0  0
  -86.1304   31.5845   -0.0057 C   0  0  0  0  0  0  0  0  0  0  0  0
  -85.9648   32.7843   -0.6741 C   0  0  0  0  0  0  0  0  0  0  0  0
  -84.6826   33.2917   -0.7463 C   0  0  0  0  0  0  0  0  0  0  0  0
  -83.6148   32.6238   -0.1726 C   0  0  0  0  0  0  0  0  0  0  0  0
  -82.8036   29.5652    1.7647 C   0  0  0  0  0  0  0  0  0  0  0  0
  -82.6788   30.7806    1.0610 O   0  0  0  0  0  0  0  0  0  0  0  0
 26 27  1  0  0  0
 27 20  1  0  0  0
 20 21  2  0  0  0
 21 22  1  0  0  0
 22 23  2  0  0  0
 23 19  1  0  0  0
 19 17  1  0  0  0
 17 18  1  0  0  0
 17 15  1  0  0  0
 15  1  1  0  0  0
  1  2  1  0  0  0
  2  3  1  0  0  0
  2  5  1  0  0  0
  5  6  2  0  0  0
  6  7  1  0  0  0
  7  8  1  0  0  0
  7  9  2  0  0  0
  9 10  1  0  0  0
 10 11  1  0  0  0
 10 12  2  0  0  0
 23 24  1  0  0  0
 24 25  2  0  0  0
 25 20  1  0  0  0
 12  5  1  0  0  0
 15 16  1  0  0  0
  3  4  1  0  0  0
  8 13  1  0  0  0
 11 14  1  0  0  0
M  END
> <minimizedAffinity>
-7.89544

> <CNNscore>
0.3164466023

> <CNNaffinity>
5.1536998749

> <CNN_VS>
1.6308708191

> <CNNaffinity_variance>
0.4550499916

$$$$
[H]Oc1c([H])c(O[H])c([H])c([C@@]([H])(O[H])C([H])([H])N([H])[C@@]([H])(C([H])([H])[H])C([H])([H])c2c([H])c([H])c(OC([H])([H])[H])c([H])c2[H])c1[H]


 27 28  0  0  0  0  0  0  0  0999 V2000
  -90.8725   31.2024   -3.2500 C   0  0  0  0  0  0  0  0  0  0  0  0
  -90.2551   31.9172   -4.4003 C   0  0  0  0  0  0  0  0  0  0  0  0
  -89.4198   30.9863   -5.1221 O   0  0  0  0  0  0  0  0  0  0  0  0
  -89.8395   30.8799   -5.9909 H   0  0  0  0  0  0  0  0  0  0  0  0
  -89.2956   33.0023   -4.0206 C   0  0  0  0  0  0  0  0  0  0  0  0
  -87.9775   32.7881   -3.7454 C   0  0  0  0  0  0  0  0  0  0  0  0
  -87.1134   33.8321   -3.3969 C   0  0  0  0  0  0  0  0  0  0  0  0
  -85.7732   33.6313   -3.1145 O   0  0  0  0  0  0  0  0  0  0  0  0
  -87.6232   35.1041   -3.3348 C   0  0  0  0  0  0  0  0  0  0  0  0
  -88.9402   35.3810   -3.6012 C   0  0  0  0  0  0  0  0  0  0  0  0
  -89.4193   36.6823   -3.5285 O   0  0  0  0  0  0  0  0  0  0  0  0
  -89.7542   34.3214   -3.9402 C   0  0  0  0  0  0  0  0  0  0  0  0
  -85.1428   33.6939   -3.9297 H   0  0  0  0  0  0  0  0  0  0  0  0
  -89.3539   37.2115   -4.4112 H   0  0  0  0  0  0  0  0  0  0  0  0
  -90.3275   30.0092   -2.7891 N   0  0  0  0  0  0  0  0  0  0  0  0
  -90.8629   29.1404   -3.0404 H   0  0  0  0  0  0  0  0  0  0  0  0
  -89.4630   29.9044   -1.7101 C   0  0  0  0  0  0  0  0  0  0  0  0
  -90.1350   29.4289   -0.4540 C   0  0  0  0  0  0  0  0  0  0  0  0
  -88.1615   29.1893   -1.9501 C   0  0  0  0  0  0  0  0  0  0  0  0
  -85.1447   30.9095    0.6120 C   0  0  0  0  0  0  0  0  0  0  0  0
  -85.1986   29.5528    0.3710 C   0  0  0  0  0  0  0  0  0  0  0  0
  -86.1649   29.0005   -0.4537 C   0  0  0  0  0  0  0  0  0  0  0  0
  -87.1198   29.7871   -1.0728 C   0  0  0  0  0  0  0  0  0  0  0  0
  -87.0670   31.1458   -0.8323 C   0  0  0  0  0  0  0  0  0  0  0  0
  -86.0983   31.6899   -0.0070 C   0  0  0  0  0  0  0  0  0  0  0  0
  -82.9283   31.9095    0.9501 C   0  0  0  0  0  0  0  0  0  0  0  0
  -84.1828   31.4891    1.4373 O   0  0  0  0  0  0  0  0  0  0  0  0
 26 27  1  0  0  0
 27 20  1  0  0  0
 20 21  2  0  0  0
 21 22  1  0  0  0
 22 23  2  0  0  0
 23 19  1  0  0  0
 19 17  1  0  0  0
 17 18  1  0  0  0
 17 15  1  0  0  0
 15  1  1  0  0  0
  1  2  1  0  0  0
  2  3  1  0  0  0
  2  5  1  0  0  0
  5  6  2  0  0  0
  6  7  1  0  0  0
  7  8  1  0  0  0
  7  9  2  0  0  0
  9 10  1  0  0  0
 10 11  1  0  0  0
 10 12  2  0  0  0
 23 24  1  0  0  0
 24 25  2  0  0  0
 25 20  1  0  0  0
 12  5  1  0  0  0
 15 16  1  0  0  0
  3  4  1  0  0  0
  8 13  1  0  0  0
 11 14  1  0  0  0
M  END
> <minimizedAffinity>
-6.73370

> <CNNscore>
0.2758371532

> <CNNaffinity>
5.0546598434

> <CNN_VS>
1.3942630291

> <CNNaffinity_variance>
0.1225183457

$$$$
[H]Oc1c([H])c(O[H])c([H])c([C@@]([H])(O[H])C([H])([H])N([H])[C@@]([H])(C([H])([H])[H])C([H])([H])c2c([H])c([H])c(OC([H])([H])[H])c([H])c2[H])c1[H]


 27 28  0  0  0  0  0  0  0  0999 V2000
  -86.2460   27.1211    2.0925 C   0  0  0  0  0  0  0  0  0  0  0  0
  -84.8417   27.5553    1.8590 C   0  0  0  0  0  0  0  0  0  0  0  0
  -84.0122   27.0016    2.9034 O   0  0  0  0  0  0  0  0  0  0  0  0
  -83.4191   26.3743    2.4593 H   0  0  0  0  0  0  0  0  0  0  0  0
  -84.6114   29.0287    1.9952 C   0  0  0  0  0  0  0  0  0  0  0  0
  -85.1127   29.7845    3.0131 C   0  0  0  0  0  0  0  0  0  0  0  0
  -84.8709   31.1597    3.1044 C   0  0  0  0  0  0  0  0  0  0  0  0
  -85.3726   31.9409    4.1312 O   0  0  0  0  0  0  0  0  0  0  0  0
  -84.1041   31.7505    2.1325 C   0  0  0  0  0  0  0  0  0  0  0  0
  -83.5726   31.0419    1.0849 C   0  0  0  0  0  0  0  0  0  0  0  0
  -82.8005   31.6754    0.1203 O   0  0  0  0  0  0  0  0  0  0  0  0
  -83.8372   29.6898    1.0359 C   0  0  0  0  0  0  0  0  0  0  0  0
  -84.7612   32.0154    4.9597 H   0  0  0  0  0  0  0  0  0  0  0  0
  -81.7914   31.7032    0.3313 H   0  0  0  0  0  0  0  0  0  0  0  0
  -87.0143   26.6310    1.0425 N   0  0  0  0  0  0  0  0  0  0  0  0
  -86.7920   25.6496    0.7389 H   0  0  0  0  0  0  0  0  0  0  0  0
  -87.6774   27.4223    0.1169 C   0  0  0  0  0  0  0  0  0  0  0  0
  -88.1578   26.6578   -1.0832 C   0  0  0  0  0  0  0  0  0  0  0  0
  -88.7383   28.3460    0.6500 C   0  0  0  0  0  0  0  0  0  0  0  0
  -88.1807   32.2511   -1.1005 C   0  0  0  0  0  0  0  0  0  0  0  0
  -89.4393   31.7409   -0.8604 C   0  0  0  0  0  0  0  0  0  0  0  0
  -89.6187   30.4888   -0.2958 C   0  0  0  0  0  0  0  0  0  0  0  0
  -88.5415   29.6938    0.0526 C   0  0  0  0  0  0  0  0  0  0  0  0
  -87.2808   30.2034   -0.1872 C   0  0  0  0  0  0  0  0  0  0  0  0
  -87.1099   31.4554   -0.7517 C   0  0  0  0  0  0  0  0  0  0  0  0
  -86.7081   33.9277   -2.1237 C   0  0  0  0  0  0  0  0  0  0  0  0
  -87.9740   33.5075   -1.6671 O   0  0  0  0  0  0  0  0  0  0  0  0
 26 27  1  0  0  0
 27 20  1  0  0  0
 20 21  2  0  0  0
 21 22  1  0  0  0
 22 23  2  0  0  0
 23 19  1  0  0  0
 19 17  1  0  0  0
 17 18  1  0  0  0
 17 15  1  0  0  0
 15  1  1  0  0  0
  1  2  1  0  0  0
  2  3  1  0  0  0
  2  5  1  0  0  0
  5  6  2  0  0  0
  6  7  1  0  0  0
  7  8  1  0  0  0
  7  9  2  0  0  0
  9 10  1  0  0  0
 10 11  1  0  0  0
 10 12  2  0  0  0
 23 24  1  0  0  0
 24 25  2  0  0  0
 25 20  1  0  0  0
 12  5  1  0  0  0
 15 16  1  0  0  0
  3  4  1  0  0  0
  8 13  1  0  0  0
 11 14  1  0  0  0
M  END
> <minimizedAffinity>
-7.38268

> <CNNscore>
0.2617777586

> <CNNaffinity>
5.6129913330

> <CNN_VS>
1.4693562984

> <CNNaffinity_variance>
0.1886378080

$$$$
[H]c1nc(N2C([H])([H])C([H])([H])C(N3C([H])([H])C([H])([H])OC([H])([H])C3([H])[H])(C([H])(C([H])([H])[H])C([H])([H])[H])C([H])([H])C2([H])[H])c([H])c2c1C(=O)c1c(n([H])c3c([H])c(C#N)c([H])c([H])c13)C2(C([H])([H])[H])C([H])([H])[H]


 38 43  0  0  0  0  0  0  0  0999 V2000
  -88.9942   34.8943   -3.3363 C   0  0  0  0  0  0  0  0  0  0  0  0
  -89.1939   33.6821   -2.7291 C   0  0  0  0  0  0  0  0  0  0  0  0
  -88.1768   33.0510   -1.9996 C   0  0  0  0  0  0  0  0  0  0  0  0
  -86.9685   33.6926   -1.9144 C   0  0  0  0  0  0  0  0  0  0  0  0
  -86.7920   34.9166   -2.5370 C   0  0  0  0  0  0  0  0  0  0  0  0
  -87.7927   35.4861   -3.2259 N   0  0  0  0  0  0  0  0  0  0  0  0
  -85.8796   33.0826   -1.1695 C   0  0  0  0  0  0  0  0  0  0  0  0
  -84.7584   33.6684   -1.0854 O   0  0  0  0  0  0  0  0  0  0  0  0
  -86.0957   31.8001   -0.5278 C   0  0  0  0  0  0  0  0  0  0  0  0
  -87.3240   31.1970   -0.6418 C   0  0  0  0  0  0  0  0  0  0  0  0
  -87.2892   30.0149    0.0357 N   0  0  0  0  0  0  0  0  0  0  0  0
  -86.0632   29.8466    0.5826 C   0  0  0  0  0  0  0  0  0  0  0  0
  -85.5152   28.8360    1.3526 C   0  0  0  0  0  0  0  0  0  0  0  0
  -84.2139   28.9367    1.7760 C   0  0  0  0  0  0  0  0  0  0  0  0
  -83.4906   30.0543    1.4148 C   0  0  0  0  0  0  0  0  0  0  0  0
  -84.0332   31.0612    0.6486 C   0  0  0  0  0  0  0  0  0  0  0  0
  -85.3266   30.9589    0.2290 C   0  0  0  0  0  0  0  0  0  0  0  0
  -88.4588   31.7587   -1.3758 C   0  0  0  0  0  0  0  0  0  0  0  0
  -89.6192   31.8776   -0.3780 C   0  0  0  0  0  0  0  0  0  0  0  0
  -88.9067   30.7031   -2.3853 C   0  0  0  0  0  0  0  0  0  0  0  0
  -88.0543   29.3244    0.1421 H   0  0  0  0  0  0  0  0  0  0  0  0
  -92.4012   36.9021   -5.2992 C   0  0  0  0  0  0  0  0  0  0  0  0
  -92.3580   35.4829   -4.6933 C   0  0  0  0  0  0  0  0  0  0  0  0
  -91.0300   34.8133   -4.8409 C   0  0  0  0  0  0  0  0  0  0  0  0
  -90.0332   35.5427   -4.0814 N   0  0  0  0  0  0  0  0  0  0  0  0
  -90.1647   36.9937   -4.1321 C   0  0  0  0  0  0  0  0  0  0  0  0
  -90.9388   37.2803   -5.4016 C   0  0  0  0  0  0  0  0  0  0  0  0
  -93.1241   37.6741   -4.3877 N   0  0  0  0  0  0  0  0  0  0  0  0
  -93.6809   37.2162   -3.2222 C   0  0  0  0  0  0  0  0  0  0  0  0
  -95.0974   37.6945   -3.0138 C   0  0  0  0  0  0  0  0  0  0  0  0
  -95.2958   39.0047   -3.3584 O   0  0  0  0  0  0  0  0  0  0  0  0
  -94.8590   39.2853   -4.6567 C   0  0  0  0  0  0  0  0  0  0  0  0
  -93.3652   39.0338   -4.6637 C   0  0  0  0  0  0  0  0  0  0  0  0
  -92.0182   36.8056   -7.7996 C   0  0  0  0  0  0  0  0  0  0  0  0
  -93.0287   36.8755   -6.6527 C   0  0  0  0  0  0  0  0  0  0  0  0
  -94.0131   35.7990   -6.9457 C   0  0  0  0  0  0  0  0  0  0  0  0
  -83.6038   27.8900    2.5895 C   0  0  0  0  0  0  0  0  0  0  0  0
  -83.1145   27.0533    3.2192 N   0  0  0  0  0  0  0  0  0  0  0  0
 34 35  1  0  0  0
 35 36  1  0  0  0
 35 22  1  0  0  0
 22 28  1  0  0  0
 28 29  1  0  0  0
 29 30  1  0  0  0
 30 31  1  0  0  0
 31 32  1  0  0  0
 32 33  1  0  0  0
 22 23  1  0  0  0
 23 24  1  0  0  0
 24 25  1  0  0  0
 25  1  1  0  0  0
  1  2  2  0  0  0
  2  3  1  0  0  0
  3  4  2  0  0  0
  4  5  1  0  0  0
  5  6  2  0  0  0
  4  7  1  0  0  0
  7  8  2  0  0  0
  7  9  1  0  0  0
  9 10  2  0  0  0
 10 11  1  0  0  0
 11 12  1  0  0  0
 12 13  2  0  0  0
 13 14  1  0  0  0
 14 37  1  0  0  0
 37 38  3  0  0  0
 14 15  2  0  0  0
 15 16  1  0  0  0
 16 17  2  0  0  0
 10 18  1  0  0  0
 18 19  1  0  0  0
 18 20  1  0  0  0
 25 26  1  0  0  0
 26 27  1  0  0  0
 27 22  1  0  0  0
 33 28  1  0  0  0
  6  1  1  0  0  0
 17  9  1  0  0  0
 18  3  1  0  0  0
 17 12  1  0  0  0
 11 21  1  0  0  0
M  END
> <minimizedAffinity>
-9.41794

> <CNNscore>
0.5486685038

> <CNNaffinity>
7.0840864182

> <CNN_VS>
3.8868150711

> <CNNaffinity_variance>
0.2748375535

$$$$
[H]c1nc(N2C([H])([H])C([H])([H])C(N3C([H])([H])C([H])([H])OC([H])([H])C3([H])[H])(C([H])(C([H])([H])[H])C([H])([H])[H])C([H])([H])C2([H])[H])c([H])c2c1C(=O)c1c(n([H])c3c([H])c(C#N)c([H])c([H])c13)C2(C([H])([H])[H])C([H])([H])[H]


 38 43  0  0  0  0  0  0  0  0999 V2000
  -89.2089   34.7899   -3.4747 C   0  0  0  0  0  0  0  0  0  0  0  0
  -89.3867   33.5888   -2.8393 C   0  0  0  0  0  0  0  0  0  0  0  0
  -88.3537   32.9860   -2.1083 C   0  0  0  0  0  0  0  0  0  0  0  0
  -87.1525   33.6440   -2.0510 C   0  0  0  0  0  0  0  0  0  0  0  0
  -86.9983   34.8563   -2.7017 C   0  0  0  0  0  0  0  0  0  0  0  0
  -88.0137   35.3985   -3.3910 N   0  0  0  0  0  0  0  0  0  0  0  0
  -86.0478   33.0635   -1.3059 C   0  0  0  0  0  0  0  0  0  0  0  0
  -84.9330   33.6645   -1.2473 O   0  0  0  0  0  0  0  0  0  0  0  0
  -86.2406   31.7926   -0.6343 C   0  0  0  0  0  0  0  0  0  0  0  0
  -87.4626   31.1723   -0.7211 C   0  0  0  0  0  0  0  0  0  0  0  0
  -87.4055   30.0056   -0.0187 N   0  0  0  0  0  0  0  0  0  0  0  0
  -86.1713   29.8641    0.5174 C   0  0  0  0  0  0  0  0  0  0  0  0
  -85.6021   28.8772    1.3025 C   0  0  0  0  0  0  0  0  0  0  0  0
  -84.2975   29.0028    1.7085 C   0  0  0  0  0  0  0  0  0  0  0  0
  -83.5922   30.1210    1.3150 C   0  0  0  0  0  0  0  0  0  0  0  0
  -84.1559   31.1045    0.5337 C   0  0  0  0  0  0  0  0  0  0  0  0
  -85.4526   30.9774    0.1314 C   0  0  0  0  0  0  0  0  0  0  0  0
  -88.6125   31.7042   -1.4537 C   0  0  0  0  0  0  0  0  0  0  0  0
  -89.7629   31.8305   -0.4453 C   0  0  0  0  0  0  0  0  0  0  0  0
  -89.0587   30.6216   -2.4351 C   0  0  0  0  0  0  0  0  0  0  0  0
  -88.1607   29.3083    0.1113 H   0  0  0  0  0  0  0  0  0  0  0  0
  -92.2818   36.5690   -6.0986 C   0  0  0  0  0  0  0  0  0  0  0  0
  -90.7924   36.9586   -5.9832 C   0  0  0  0  0  0  0  0  0  0  0  0
  -90.2438   36.8086   -4.6010 C   0  0  0  0  0  0  0  0  0  0  0  0
  -90.2644   35.4094   -4.2215 N   0  0  0  0  0  0  0  0  0  0  0  0
  -91.4453   34.6735   -4.6564 C   0  0  0  0  0  0  0  0  0  0  0  0
  -92.5160   35.7239   -4.8645 C   0  0  0  0  0  0  0  0  0  0  0  0
  -92.3899   35.8629   -7.2983 N   0  0  0  0  0  0  0  0  0  0  0  0
  -93.5109   35.2094   -7.7392 C   0  0  0  0  0  0  0  0  0  0  0  0
  -93.2205   33.8270   -8.2714 C   0  0  0  0  0  0  0  0  0  0  0  0
  -92.0839   33.7537   -9.0314 O   0  0  0  0  0  0  0  0  0  0  0  0
  -90.9687   34.2806   -8.3728 C   0  0  0  0  0  0  0  0  0  0  0  0
  -91.2682   35.7475   -8.1419 C   0  0  0  0  0  0  0  0  0  0  0  0
  -93.7768   38.0604   -4.7027 C   0  0  0  0  0  0  0  0  0  0  0  0
  -93.1458   37.7852   -6.0692 C   0  0  0  0  0  0  0  0  0  0  0  0
  -92.5415   39.0819   -6.4782 C   0  0  0  0  0  0  0  0  0  0  0  0
  -83.6652   27.9814    2.5371 C   0  0  0  0  0  0  0  0  0  0  0  0
  -83.1630   27.1620    3.1794 N   0  0  0  0  0  0  0  0  0  0  0  0
 34 35  1  0  0  0
 35 36  1  0  0  0
 35 22  1  0  0  0
 22 28  1  0  0  0
 28 29  1  0  0  0
 29 30  1  0  0  0
 30 31  1  0  0  0
 31 32  1  0  0  0
 32 33  1  0  0  0
 22 23  1  0  0  0
 23 24  1  0  0  0
 24 25  1  0  0  0
 25  1  1  0  0  0
  1  2  2  0  0  0
  2  3  1  0  0  0
  3  4  2  0  0  0
  4  5  1  0  0  0
  5  6  2  0  0  0
  4  7  1  0  0  0
  7  8  2  0  0  0
  7  9  1  0  0  0
  9 10  2  0  0  0
 10 11  1  0  0  0
 11 12  1  0  0  0
 12 13  2  0  0  0
 13 14  1  0  0  0
 14 37  1  0  0  0
 37 38  3  0  0  0
 14 15  2  0  0  0
 15 16  1  0  0  0
 16 17  2  0  0  0
 10 18  1  0  0  0
 18 19  1  0  0  0
 18 20  1  0  0  0
 25 26  1  0  0  0
 26 27  1  0  0  0
 27 22  1  0  0  0
 33 28  1  0  0  0
  6  1  1  0  0  0
 17  9  1  0  0  0
 18  3  1  0  0  0
 17 12  1  0  0  0
 11 21  1  0  0  0
M  END
> <minimizedAffinity>
-9.60643

> <CNNscore>
0.5157768726

> <CNNaffinity>
6.9960966110

> <CNN_VS>
3.6084249020

> <CNNaffinity_variance>
0.3027223349

$$$$
[H]c1nc(N2C([H])([H])C([H])([H])C(N3C([H])([H])C([H])([H])OC([H])([H])C3([H])[H])(C([H])(C([H])([H])[H])C([H])([H])[H])C([H])([H])C2([H])[H])c([H])c2c1C(=O)c1c(n([H])c3c([H])c(C#N)c([H])c([H])c13)C2(C([H])([H])[H])C([H])([H])[H]


 38 43  0  0  0  0  0  0  0  0999 V2000
  -89.0755   34.7917   -3.5920 C   0  0  0  0  0  0  0  0  0  0  0  0
  -89.2871   33.6019   -2.9459 C   0  0  0  0  0  0  0  0  0  0  0  0
  -88.2779   32.9874   -2.1917 C   0  0  0  0  0  0  0  0  0  0  0  0
  -87.0649   33.6222   -2.1227 C   0  0  0  0  0  0  0  0  0  0  0  0
  -86.8764   34.8236   -2.7846 C   0  0  0  0  0  0  0  0  0  0  0  0
  -87.8699   35.3776   -3.4961 N   0  0  0  0  0  0  0  0  0  0  0  0
  -85.9838   33.0288   -1.3535 C   0  0  0  0  0  0  0  0  0  0  0  0
  -84.8584   33.6085   -1.2839 O   0  0  0  0  0  0  0  0  0  0  0  0
  -86.2124   31.7699   -0.6707 C   0  0  0  0  0  0  0  0  0  0  0  0
  -87.4450   31.1728   -0.7699 C   0  0  0  0  0  0  0  0  0  0  0  0
  -87.4221   30.0135   -0.0536 N   0  0  0  0  0  0  0  0  0  0  0  0
  -86.1995   29.8539    0.5037 C   0  0  0  0  0  0  0  0  0  0  0  0
  -85.6625   28.8652    1.3090 C   0  0  0  0  0  0  0  0  0  0  0  0
  -84.3622   28.9699    1.7343 C   0  0  0  0  0  0  0  0  0  0  0  0
  -83.6287   30.0693    1.3395 C   0  0  0  0  0  0  0  0  0  0  0  0
  -84.1604   31.0545    0.5381 C   0  0  0  0  0  0  0  0  0  0  0  0
  -85.4529   30.9483    0.1167 C   0  0  0  0  0  0  0  0  0  0  0  0
  -88.5724   31.7187   -1.5269 C   0  0  0  0  0  0  0  0  0  0  0  0
  -89.7358   31.8793   -0.5384 C   0  0  0  0  0  0  0  0  0  0  0  0
  -89.0245   30.6337   -2.5029 C   0  0  0  0  0  0  0  0  0  0  0  0
  -88.1929   29.3327    0.0723 H   0  0  0  0  0  0  0  0  0  0  0  0
  -91.9877   37.0099   -6.0601 C   0  0  0  0  0  0  0  0  0  0  0  0
  -91.3153   37.4660   -4.7473 C   0  0  0  0  0  0  0  0  0  0  0  0
  -91.0643   36.3478   -3.7879 C   0  0  0  0  0  0  0  0  0  0  0  0
  -90.1066   35.4231   -4.3625 N   0  0  0  0  0  0  0  0  0  0  0  0
  -90.2703   35.1794   -5.7905 C   0  0  0  0  0  0  0  0  0  0  0  0
  -91.7147   35.5211   -6.0906 C   0  0  0  0  0  0  0  0  0  0  0  0
  -91.3474   37.7248   -7.0741 N   0  0  0  0  0  0  0  0  0  0  0  0
  -91.5301   37.5354   -8.4190 C   0  0  0  0  0  0  0  0  0  0  0  0
  -90.2349   37.4920   -9.1930 C   0  0  0  0  0  0  0  0  0  0  0  0
  -89.3152   38.4212   -8.7862 O   0  0  0  0  0  0  0  0  0  0  0  0
  -89.0773   38.3668   -7.4095 C   0  0  0  0  0  0  0  0  0  0  0  0
  -90.3932   38.7049   -6.7394 C   0  0  0  0  0  0  0  0  0  0  0  0
  -94.2860   36.0503   -5.6072 C   0  0  0  0  0  0  0  0  0  0  0  0
  -93.4564   37.2697   -6.0147 C   0  0  0  0  0  0  0  0  0  0  0  0
  -93.9446   38.3718   -5.1424 C   0  0  0  0  0  0  0  0  0  0  0  0
  -83.7635   27.9460    2.5844 C   0  0  0  0  0  0  0  0  0  0  0  0
  -83.2734   27.1423    3.2553 N   0  0  0  0  0  0  0  0  0  0  0  0
 34 35  1  0  0  0
 35 36  1  0  0  0
 35 22  1  0  0  0
 22 28  1  0  0  0
 28 29  1  0  0  0
 29 30  1  0  0  0
 30 31  1  0  0  0
 31 32  1  0  0  0
 32 33  1  0  0  0
 22 23  1  0  0  0
 23 24  1  0  0  0
 24 25  1  0  0  0
 25  1  1  0  0  0
  1  2  2  0  0  0
  2  3  1  0  0  0
  3  4  2  0  0  0
  4  5  1  0  0  0
  5  6  2  0  0  0
  4  7  1  0  0  0
  7  8  2  0  0  0
  7  9  1  0  0  0
  9 10  2  0  0  0
 10 11  1  0  0  0
 11 12  1  0  0  0
 12 13  2  0  0  0
 13 14  1  0  0  0
 14 37  1  0  0  0
 37 38  3  0  0  0
 14 15  2  0  0  0
 15 16  1  0  0  0
 16 17  2  0  0  0
 10 18  1  0  0  0
 18 19  1  0  0  0
 18 20  1  0  0  0
 25 26  1  0  0  0
 26 27  1  0  0  0
 27 22  1  0  0  0
 33 28  1  0  0  0
  6  1  1  0  0  0
 17  9  1  0  0  0
 18  3  1  0  0  0
 17 12  1  0  0  0
 11 21  1  0  0  0
M  END
> <minimizedAffinity>
-9.22289

> <CNNscore>
0.4370968342

> <CNNaffinity>
6.9095697403

> <CNN_VS>
3.0201511383

> <CNNaffinity_variance>
0.2156194001

$$$$
[H]c1nc(N2C([H])([H])C([H])([H])C(N3C([H])([H])C([H])([H])OC([H])([H])C3([H])[H])(C([H])(C([H])([H])[H])C([H])([H])[H])C([H])([H])C2([H])[H])c([H])c2c1C(=O)c1c(n([H])c3c([H])c(C#N)c([H])c([H])c13)C2(C([H])([H])[H])C([H])([H])[H]


 38 43  0  0  0  0  0  0  0  0999 V2000
  -89.2925   34.5915   -3.9778 C   0  0  0  0  0  0  0  0  0  0  0  0
  -89.2781   33.2649   -3.6345 C   0  0  0  0  0  0  0  0  0  0  0  0
  -88.3756   32.7625   -2.6869 C   0  0  0  0  0  0  0  0  0  0  0  0
  -87.5030   33.6498   -2.1123 C   0  0  0  0  0  0  0  0  0  0  0  0
  -87.5375   34.9852   -2.4764 C   0  0  0  0  0  0  0  0  0  0  0  0
  -88.4180   35.4246   -3.3884 N   0  0  0  0  0  0  0  0  0  0  0  0
  -86.5465   33.1817   -1.1231 C   0  0  0  0  0  0  0  0  0  0  0  0
  -85.7353   33.9949   -0.5864 O   0  0  0  0  0  0  0  0  0  0  0  0
  -86.5354   31.7771   -0.7622 C   0  0  0  0  0  0  0  0  0  0  0  0
  -87.4295   30.9275   -1.3656 C   0  0  0  0  0  0  0  0  0  0  0  0
  -87.2325   29.6722   -0.8726 N   0  0  0  0  0  0  0  0  0  0  0  0
  -86.2296   29.6984    0.0352 C   0  0  0  0  0  0  0  0  0  0  0  0
  -85.6473   28.7124    0.8118 C   0  0  0  0  0  0  0  0  0  0  0  0
  -84.6230   29.0383    1.6645 C   0  0  0  0  0  0  0  0  0  0  0  0
  -84.2057   30.3519    1.7177 C   0  0  0  0  0  0  0  0  0  0  0  0
  -84.7831   31.3351    0.9460 C   0  0  0  0  0  0  0  0  0  0  0  0
  -85.8009   31.0088    0.0993 C   0  0  0  0  0  0  0  0  0  0  0  0
  -88.4160   31.3362   -2.3665 C   0  0  0  0  0  0  0  0  0  0  0  0
  -89.7946   30.9398   -1.8202 C   0  0  0  0  0  0  0  0  0  0  0  0
  -88.2031   30.4511   -3.5934 C   0  0  0  0  0  0  0  0  0  0  0  0
  -87.7444   28.8070   -1.1232 H   0  0  0  0  0  0  0  0  0  0  0  0
  -92.2065   35.8126   -7.0616 C   0  0  0  0  0  0  0  0  0  0  0  0
  -90.8368   35.1309   -7.2683 C   0  0  0  0  0  0  0  0  0  0  0  0
  -89.8086   35.5462   -6.2663 C   0  0  0  0  0  0  0  0  0  0  0  0
  -90.2156   35.1083   -4.9453 N   0  0  0  0  0  0  0  0  0  0  0  0
  -91.6418   35.2338   -4.6702 C   0  0  0  0  0  0  0  0  0  0  0  0
  -92.1411   36.2950   -5.6281 C   0  0  0  0  0  0  0  0  0  0  0  0
  -93.1564   34.8131   -7.2808 N   0  0  0  0  0  0  0  0  0  0  0  0
  -94.5069   34.9420   -7.0866 C   0  0  0  0  0  0  0  0  0  0  0  0
  -95.1141   33.7733   -6.3491 C   0  0  0  0  0  0  0  0  0  0  0  0
  -94.6271   32.5560   -6.7438 O   0  0  0  0  0  0  0  0  0  0  0  0
  -93.2306   32.5027   -6.7021 C   0  0  0  0  0  0  0  0  0  0  0  0
  -92.7385   33.5342   -7.6965 C   0  0  0  0  0  0  0  0  0  0  0  0
  -92.1485   38.3290   -7.3299 C   0  0  0  0  0  0  0  0  0  0  0  0
  -92.3635   36.9672   -7.9936 C   0  0  0  0  0  0  0  0  0  0  0  0
  -91.5143   37.0001   -9.2150 C   0  0  0  0  0  0  0  0  0  0  0  0
  -83.9860   28.0240    2.4983 C   0  0  0  0  0  0  0  0  0  0  0  0
  -83.4762   27.2122    3.1442 N   0  0  0  0  0  0  0  0  0  0  0  0
 34 35  1  0  0  0
 35 36  1  0  0  0
 35 22  1  0  0  0
 22 28  1  0  0  0
 28 29  1  0  0  0
 29 30  1  0  0  0
 30 31  1  0  0  0
 31 32  1  0  0  0
 32 33  1  0  0  0
 22 23  1  0  0  0
 23 24  1  0  0  0
 24 25  1  0  0  0
 25  1  1  0  0  0
  1  2  2  0  0  0
  2  3  1  0  0  0
  3  4  2  0  0  0
  4  5  1  0  0  0
  5  6  2  0  0  0
  4  7  1  0  0  0
  7  8  2  0  0  0
  7  9  1  0  0  0
  9 10  2  0  0  0
 10 11  1  0  0  0
 11 12  1  0  0  0
 12 13  2  0  0  0
 13 14  1  0  0  0
 14 37  1  0  0  0
 37 38  3  0  0  0
 14 15  2  0  0  0
 15 16  1  0  0  0
 16 17  2  0  0  0
 10 18  1  0  0  0
 18 19  1  0  0  0
 18 20  1  0  0  0
 25 26  1  0  0  0
 26 27  1  0  0  0
 27 22  1  0  0  0
 33 28  1  0  0  0
  6  1  1  0  0  0
 17  9  1  0  0  0
 18  3  1  0  0  0
 17 12  1  0  0  0
 11 21  1  0  0  0
M  END
> <minimizedAffinity>
-9.23608

> <CNNscore>
0.2279101014

> <CNNaffinity>
6.6775574684

> <CNN_VS>
1.5218827724

> <CNNaffinity_variance>
0.2434511632

$$$$
[H]c1nc(N2C([H])([H])C([H])([H])C(N3C([H])([H])C([H])([H])OC([H])([H])C3([H])[H])(C([H])(C([H])([H])[H])C([H])([H])[H])C([H])([H])C2([H])[H])c([H])c2c1C(=O)c1c(n([H])c3c([H])c(C#N)c([H])c([H])c13)C2(C([H])([H])[H])C([H])([H])[H]


 38 43  0  0  0  0  0  0  0  0999 V2000
  -90.7219   25.0264    0.0140 C   0  0  0  0  0  0  0  0  0  0  0  0
  -89.4098   25.3306    0.2663 C   0  0  0  0  0  0  0  0  0  0  0  0
  -88.9131   26.6306    0.0981 C   0  0  0  0  0  0  0  0  0  0  0  0
  -89.7910   27.5923   -0.3300 C   0  0  0  0  0  0  0  0  0  0  0  0
  -91.1118   27.2594   -0.5780 C   0  0  0  0  0  0  0  0  0  0  0  0
  -91.5462   26.0020   -0.4042 N   0  0  0  0  0  0  0  0  0  0  0  0
  -89.3283   28.9570   -0.5201 C   0  0  0  0  0  0  0  0  0  0  0  0
  -90.1329   29.8533   -0.9159 O   0  0  0  0  0  0  0  0  0  0  0  0
  -87.9390   29.2746   -0.2512 C   0  0  0  0  0  0  0  0  0  0  0  0
  -87.0984   28.2765    0.1759 C   0  0  0  0  0  0  0  0  0  0  0  0
  -85.8568   28.8073    0.3612 N   0  0  0  0  0  0  0  0  0  0  0  0
  -85.8830   30.1264    0.0615 C   0  0  0  0  0  0  0  0  0  0  0  0
  -84.9079   31.1078    0.0812 C   0  0  0  0  0  0  0  0  0  0  0  0
  -85.2305   32.3908   -0.2828 C   0  0  0  0  0  0  0  0  0  0  0  0
  -86.5300   32.6593   -0.6596 C   0  0  0  0  0  0  0  0  0  0  0  0
  -87.5023   31.6848   -0.6802 C   0  0  0  0  0  0  0  0  0  0  0  0
  -87.1792   30.4105   -0.3181 C   0  0  0  0  0  0  0  0  0  0  0  0
  -87.5024   26.8857    0.3869 C   0  0  0  0  0  0  0  0  0  0  0  0
  -87.1753   26.5439    1.8472 C   0  0  0  0  0  0  0  0  0  0  0  0
  -86.5640   26.0148   -0.4469 C   0  0  0  0  0  0  0  0  0  0  0  0
  -85.0009   28.3177    0.6793 H   0  0  0  0  0  0  0  0  0  0  0  0
  -92.6504   21.0961    0.5852 C   0  0  0  0  0  0  0  0  0  0  0  0
  -92.5177   22.2448    1.6081 C   0  0  0  0  0  0  0  0  0  0  0  0
  -91.2482   23.0212    1.4691 C   0  0  0  0  0  0  0  0  0  0  0  0
  -91.2329   23.6981    0.1869 N   0  0  0  0  0  0  0  0  0  0  0  0
  -91.7776   22.9237   -0.9216 C   0  0  0  0  0  0  0  0  0  0  0  0
  -91.6586   21.4760   -0.4937 C   0  0  0  0  0  0  0  0  0  0  0  0
  -93.9820   21.1228    0.1664 N   0  0  0  0  0  0  0  0  0  0  0  0
  -94.5646   20.2275   -0.6922 C   0  0  0  0  0  0  0  0  0  0  0  0
  -95.4051   20.8886   -1.7576 C   0  0  0  0  0  0  0  0  0  0  0  0
  -96.1600   21.9342   -1.2978 O   0  0  0  0  0  0  0  0  0  0  0  0
  -95.3954   22.8787   -0.6063 C   0  0  0  0  0  0  0  0  0  0  0  0
  -94.8281   22.1611    0.6012 C   0  0  0  0  0  0  0  0  0  0  0  0
  -91.0518   19.1334    0.5595 C   0  0  0  0  0  0  0  0  0  0  0  0
  -92.2708   19.7938    1.2070 C   0  0  0  0  0  0  0  0  0  0  0  0
  -91.9849   19.7734    2.6670 C   0  0  0  0  0  0  0  0  0  0  0  0
  -84.2275   33.4508   -0.2736 C   0  0  0  0  0  0  0  0  0  0  0  0
  -83.4425   34.2992   -0.2783 N   0  0  0  0  0  0  0  0  0  0  0  0
 34 35  1  0  0  0
 35 36  1  0  0  0
 35 22  1  0  0  0
 22 28  1  0  0  0
 28 29  1  0  0  0
 29 30  1  0  0  0
 30 31  1  0  0  0
 31 32  1  0  0  0
 32 33  1  0  0  0
 22 23  1  0  0  0
 23 24  1  0  0  0
 24 25  1  0  0  0
 25  1  1  0  0  0
  1  2  2  0  0  0
  2  3  1  0  0  0
  3  4  2  0  0  0
  4  5  1  0  0  0
  5  6  2  0  0  0
  4  7  1  0  0  0
  7  8  2  0  0  0
  7  9  1  0  0  0
  9 10  2  0  0  0
 10 11  1  0  0  0
 11 12  1  0  0  0
 12 13  2  0  0  0
 13 14  1  0  0  0
 14 37  1  0  0  0
 37 38  3  0  0  0
 14 15  2  0  0  0
 15 16  1  0  0  0
 16 17  2  0  0  0
 10 18  1  0  0  0
 18 19  1  0  0  0
 18 20  1  0  0  0
 25 26  1  0  0  0
 26 27  1  0  0  0
 27 22  1  0  0  0
 33 28  1  0  0  0
  6  1  1  0  0  0
 17  9  1  0  0  0
 18  3  1  0  0  0
 17 12  1  0  0  0
 11 21  1  0  0  0
M  END
> <minimizedAffinity>
-6.04091

> <CNNscore>
0.0866580382

> <CNNaffinity>
5.9273214340

> <CNN_VS>
0.5136500597

> <CNNaffinity_variance>
0.5209187865

$$$$
[H]c1nc(N2C([H])([H])C([H])([H])C(N3C([H])([H])C([H])([H])OC([H])([H])C3([H])[H])(C([H])(C([H])([H])[H])C([H])([H])[H])C([H])([H])C2([H])[H])c([H])c2c1C(=O)c1c(n([H])c3c([H])c(C#N)c([H])c([H])c13)C2(C([H])([H])[H])C([H])([H])[H]


 38 43  0  0  0  0  0  0  0  0999 V2000
  -90.9492   24.8396    0.1075 C   0  0  0  0  0  0  0  0  0  0  0  0
  -90.7333   25.9730   -0.6318 C   0  0  0  0  0  0  0  0  0  0  0  0
  -89.6735   26.8445   -0.3452 C   0  0  0  0  0  0  0  0  0  0  0  0
  -88.8559   26.5212    0.7065 C   0  0  0  0  0  0  0  0  0  0  0  0
  -89.0953   25.3704    1.4379 C   0  0  0  0  0  0  0  0  0  0  0  0
  -90.1217   24.5632    1.1297 N   0  0  0  0  0  0  0  0  0  0  0  0
  -87.7414   27.3902    1.0463 C   0  0  0  0  0  0  0  0  0  0  0  0
  -86.9799   27.0995    2.0174 O   0  0  0  0  0  0  0  0  0  0  0  0
  -87.5161   28.5883    0.2608 C   0  0  0  0  0  0  0  0  0  0  0  0
  -88.3628   28.8690   -0.7832 C   0  0  0  0  0  0  0  0  0  0  0  0
  -87.9576   30.0320   -1.3671 N   0  0  0  0  0  0  0  0  0  0  0  0
  -86.8678   30.5040   -0.7190 C   0  0  0  0  0  0  0  0  0  0  0  0
  -86.0836   31.6283   -0.9075 C   0  0  0  0  0  0  0  0  0  0  0  0
  -85.0158   31.8566   -0.0768 C   0  0  0  0  0  0  0  0  0  0  0  0
  -84.7592   30.9468    0.9278 C   0  0  0  0  0  0  0  0  0  0  0  0
  -85.5378   29.8274    1.1179 C   0  0  0  0  0  0  0  0  0  0  0  0
  -86.5986   29.6027    0.2910 C   0  0  0  0  0  0  0  0  0  0  0  0
  -89.5001   28.0357   -1.1757 C   0  0  0  0  0  0  0  0  0  0  0  0
  -89.2816   27.6479   -2.6448 C   0  0  0  0  0  0  0  0  0  0  0  0
  -90.7349   28.9353   -1.1796 C   0  0  0  0  0  0  0  0  0  0  0  0
  -88.3846   30.5143   -2.1786 H   0  0  0  0  0  0  0  0  0  0  0  0
  -94.5036   22.4031   -0.8531 C   0  0  0  0  0  0  0  0  0  0  0  0
  -94.2951   23.3406    0.3556 C   0  0  0  0  0  0  0  0  0  0  0  0
  -92.8825   23.3778    0.8427 C   0  0  0  0  0  0  0  0  0  0  0  0
  -92.0313   23.9456   -0.1846 N   0  0  0  0  0  0  0  0  0  0  0  0
  -92.3574   23.5374   -1.5457 C   0  0  0  0  0  0  0  0  0  0  0  0
  -93.1034   22.2276   -1.4016 C   0  0  0  0  0  0  0  0  0  0  0  0
  -95.3669   23.0878   -1.7106 N   0  0  0  0  0  0  0  0  0  0  0  0
  -95.6691   22.7206   -2.9958 C   0  0  0  0  0  0  0  0  0  0  0  0
  -95.6221   23.8738   -3.9686 C   0  0  0  0  0  0  0  0  0  0  0  0
  -96.1619   25.0331   -3.4796 O   0  0  0  0  0  0  0  0  0  0  0  0
  -95.6131   25.3966   -2.2461 C   0  0  0  0  0  0  0  0  0  0  0  0
  -95.9703   24.2853   -1.2806 C   0  0  0  0  0  0  0  0  0  0  0  0
  -94.0026   19.9917   -0.2678 C   0  0  0  0  0  0  0  0  0  0  0  0
  -95.0578   21.0907   -0.4093 C   0  0  0  0  0  0  0  0  0  0  0  0
  -95.8234   21.0506    0.8659 C   0  0  0  0  0  0  0  0  0  0  0  0
  -84.1674   33.0317   -0.2467 C   0  0  0  0  0  0  0  0  0  0  0  0
  -83.4946   33.9593   -0.3986 N   0  0  0  0  0  0  0  0  0  0  0  0
 34 35  1  0  0  0
 35 36  1  0  0  0
 35 22  1  0  0  0
 22 28  1  0  0  0
 28 29  1  0  0  0
 29 30  1  0  0  0
 30 31  1  0  0  0
 31 32  1  0  0  0
 32 33  1  0  0  0
 22 23  1  0  0  0
 23 24  1  0  0  0
 24 25  1  0  0  0
 25  1  1  0  0  0
  1  2  2  0  0  0
  2  3  1  0  0  0
  3  4  2  0  0  0
  4  5  1  0  0  0
  5  6  2  0  0  0
  4  7  1  0  0  0
  7  8  2  0  0  0
  7  9  1  0  0  0
  9 10  2  0  0  0
 10 11  1  0  0  0
 11 12  1  0  0  0
 12 13  2  0  0  0
 13 14  1  0  0  0
 14 37  1  0  0  0
 37 38  3  0  0  0
 14 15  2  0  0  0
 15 16  1  0  0  0
 16 17  2  0  0  0
 10 18  1  0  0  0
 18 19  1  0  0  0
 18 20  1  0  0  0
 25 26  1  0  0  0
 26 27  1  0  0  0
 27 22  1  0  0  0
 33 28  1  0  0  0
  6  1  1  0  0  0
 17  9  1  0  0  0
 18  3  1  0  0  0
 17 12  1  0  0  0
 11 21  1  0  0  0
M  END
> <minimizedAffinity>
-7.48222

> <CNNscore>
0.0807044059

> <CNNaffinity>
6.1840543747

> <CNN_VS>
0.4990804195

> <CNNaffinity_variance>
0.5147576332

$$$$
[H]c1nc(N2C([H])([H])C([H])([H])C(N3C([H])([H])C([H])([H])OC([H])([H])C3([H])[H])(C([H])(C([H])([H])[H])C([H])([H])[H])C([H])([H])C2([H])[H])c([H])c2c1C(=O)c1c(n([H])c3c([H])c(C#N)c([H])c([H])c13)C2(C([H])([H])[H])C([H])([H])[H]


 38 43  0  0  0  0  0  0  0  0999 V2000
  -90.6765   32.9749   -3.9197 C   0  0  0  0  0  0  0  0  0  0  0  0
  -90.5398   31.7657   -3.2896 C   0  0  0  0  0  0  0  0  0  0  0  0
  -89.4245   31.4769   -2.4910 C   0  0  0  0  0  0  0  0  0  0  0  0
  -88.4700   32.4522   -2.3617 C   0  0  0  0  0  0  0  0  0  0  0  0
  -88.6315   33.6656   -3.0086 C   0  0  0  0  0  0  0  0  0  0  0  0
  -89.7151   33.9009   -3.7641 N   0  0  0  0  0  0  0  0  0  0  0  0
  -87.2936   32.2053   -1.5446 C   0  0  0  0  0  0  0  0  0  0  0  0
  -86.4054   33.1012   -1.4192 O   0  0  0  0  0  0  0  0  0  0  0  0
  -87.1534   30.9244   -0.8789 C   0  0  0  0  0  0  0  0  0  0  0  0
  -88.1368   29.9795   -1.0392 C   0  0  0  0  0  0  0  0  0  0  0  0
  -87.7897   28.8701   -0.3277 N   0  0  0  0  0  0  0  0  0  0  0  0
  -86.6031   29.0833    0.2863 C   0  0  0  0  0  0  0  0  0  0  0  0
  -85.8237   28.2925    1.1119 C   0  0  0  0  0  0  0  0  0  0  0  0
  -84.6387   28.7835    1.5989 C   0  0  0  0  0  0  0  0  0  0  0  0
  -84.2625   30.0623    1.2442 C   0  0  0  0  0  0  0  0  0  0  0  0
  -85.0359   30.8514    0.4228 C   0  0  0  0  0  0  0  0  0  0  0  0
  -86.2132   30.3612   -0.0600 C   0  0  0  0  0  0  0  0  0  0  0  0
  -89.3432   30.1668   -1.8465 C   0  0  0  0  0  0  0  0  0  0  0  0
  -90.5417   29.9437   -0.9137 C   0  0  0  0  0  0  0  0  0  0  0  0
  -89.3963   29.0139   -2.8476 C   0  0  0  0  0  0  0  0  0  0  0  0
  -88.3184   27.9832   -0.2415 H   0  0  0  0  0  0  0  0  0  0  0  0
  -94.2149   33.5108   -6.5052 C   0  0  0  0  0  0  0  0  0  0  0  0
  -92.8055   33.0316   -6.9142 C   0  0  0  0  0  0  0  0  0  0  0  0
  -91.7081   33.6703   -6.1258 C   0  0  0  0  0  0  0  0  0  0  0  0
  -91.8170   33.2734   -4.7355 N   0  0  0  0  0  0  0  0  0  0  0  0
  -93.1801   33.2008   -4.2236 C   0  0  0  0  0  0  0  0  0  0  0  0
  -93.9947   34.1010   -5.1286 C   0  0  0  0  0  0  0  0  0  0  0  0
  -95.0133   32.3653   -6.5101 N   0  0  0  0  0  0  0  0  0  0  0  0
  -96.1274   32.1683   -5.7368 C   0  0  0  0  0  0  0  0  0  0  0  0
  -96.1627   30.8080   -5.0835 C   0  0  0  0  0  0  0  0  0  0  0  0
  -95.7504   29.7901   -5.9013 O   0  0  0  0  0  0  0  0  0  0  0  0
  -94.4979   30.0392   -6.4706 C   0  0  0  0  0  0  0  0  0  0  0  0
  -94.6628   31.2756   -7.3302 C   0  0  0  0  0  0  0  0  0  0  0  0
  -95.4920   35.6806   -6.7678 C   0  0  0  0  0  0  0  0  0  0  0  0
  -94.7073   34.5570   -7.4483 C   0  0  0  0  0  0  0  0  0  0  0  0
  -93.7083   35.2533   -8.3033 C   0  0  0  0  0  0  0  0  0  0  0  0
  -83.7918   27.9773    2.4721 C   0  0  0  0  0  0  0  0  0  0  0  0
  -83.1079   27.3502    3.1614 N   0  0  0  0  0  0  0  0  0  0  0  0
 34 35  1  0  0  0
 35 36  1  0  0  0
 35 22  1  0  0  0
 22 28  1  0  0  0
 28 29  1  0  0  0
 29 30  1  0  0  0
 30 31  1  0  0  0
 31 32  1  0  0  0
 32 33  1  0  0  0
 22 23  1  0  0  0
 23 24  1  0  0  0
 24 25  1  0  0  0
 25  1  1  0  0  0
  1  2  2  0  0  0
  2  3  1  0  0  0
  3  4  2  0  0  0
  4  5  1  0  0  0
  5  6  2  0  0  0
  4  7  1  0  0  0
  7  8  2  0  0  0
  7  9  1  0  0  0
  9 10  2  0  0  0
 10 11  1  0  0  0
 11 12  1  0  0  0
 12 13  2  0  0  0
 13 14  1  0  0  0
 14 37  1  0  0  0
 37 38  3  0  0  0
 14 15  2  0  0  0
 15 16  1  0  0  0
 16 17  2  0  0  0
 10 18  1  0  0  0
 18 19  1  0  0  0
 18 20  1  0  0  0
 25 26  1  0  0  0
 26 27  1  0  0  0
 27 22  1  0  0  0
 33 28  1  0  0  0
  6  1  1  0  0  0
 17  9  1  0  0  0
 18  3  1  0  0  0
 17 12  1  0  0  0
 11 21  1  0  0  0
M  END
> <minimizedAffinity>
-7.80230

> <CNNscore>
0.0739798099

> <CNNaffinity>
6.3260817528

> <CNN_VS>
0.4680023193

> <CNNaffinity_variance>
0.2723731399

$$$$
[H]c1nc(N2C([H])([H])C([H])([H])C(N3C([H])([H])C([H])([H])OC([H])([H])C3([H])[H])(C([H])(C([H])([H])[H])C([H])([H])[H])C([H])([H])C2([H])[H])c([H])c2c1C(=O)c1c(n([H])c3c([H])c(C#N)c([H])c([H])c13)C2(C([H])([H])[H])C([H])([H])[H]


 38 43  0  0  0  0  0  0  0  0999 V2000
  -87.6640   34.1713   -2.9087 C   0  0  0  0  0  0  0  0  0  0  0  0
  -88.5563   33.1447   -3.0755 C   0  0  0  0  0  0  0  0  0  0  0  0
  -88.5458   32.0206   -2.2382 C   0  0  0  0  0  0  0  0  0  0  0  0
  -87.6062   31.9841   -1.2408 C   0  0  0  0  0  0  0  0  0  0  0  0
  -86.7157   33.0339   -1.0931 C   0  0  0  0  0  0  0  0  0  0  0  0
  -86.7603   34.0918   -1.9171 N   0  0  0  0  0  0  0  0  0  0  0  0
  -87.5517   30.8418   -0.3436 C   0  0  0  0  0  0  0  0  0  0  0  0
  -86.6861   30.7990    0.5817 O   0  0  0  0  0  0  0  0  0  0  0  0
  -88.4986   29.7580   -0.5234 C   0  0  0  0  0  0  0  0  0  0  0  0
  -89.4210   29.8410   -1.5371 C   0  0  0  0  0  0  0  0  0  0  0  0
  -90.1945   28.7191   -1.5101 N   0  0  0  0  0  0  0  0  0  0  0  0
  -89.7872   27.9171   -0.4994 C   0  0  0  0  0  0  0  0  0  0  0  0
  -90.2286   26.6854   -0.0491 C   0  0  0  0  0  0  0  0  0  0  0  0
  -89.6101   26.0950    1.0239 C   0  0  0  0  0  0  0  0  0  0  0  0
  -88.5587   26.7579    1.6222 C   0  0  0  0  0  0  0  0  0  0  0  0
  -88.1174   27.9834    1.1763 C   0  0  0  0  0  0  0  0  0  0  0  0
  -88.7336   28.5681    0.1097 C   0  0  0  0  0  0  0  0  0  0  0  0
  -89.5276   30.9623   -2.4717 C   0  0  0  0  0  0  0  0  0  0  0  0
  -90.9567   31.5090   -2.3495 C   0  0  0  0  0  0  0  0  0  0  0  0
  -89.4418   30.3805   -3.8817 C   0  0  0  0  0  0  0  0  0  0  0  0
  -90.9792   28.4768   -2.1417 H   0  0  0  0  0  0  0  0  0  0  0  0
  -88.0834   37.6817   -5.5531 C   0  0  0  0  0  0  0  0  0  0  0  0
  -88.3879   36.2046   -5.8827 C   0  0  0  0  0  0  0  0  0  0  0  0
  -87.4740   35.2415   -5.1964 C   0  0  0  0  0  0  0  0  0  0  0  0
  -87.6738   35.3229   -3.7625 N   0  0  0  0  0  0  0  0  0  0  0  0
  -87.8854   36.6706   -3.2486 C   0  0  0  0  0  0  0  0  0  0  0  0
  -87.2692   37.5924   -4.2799 C   0  0  0  0  0  0  0  0  0  0  0  0
  -89.3290   38.2906   -5.3882 N   0  0  0  0  0  0  0  0  0  0  0  0
  -89.5356   39.5872   -4.9956 C   0  0  0  0  0  0  0  0  0  0  0  0
  -90.5997   39.7228   -3.9337 C   0  0  0  0  0  0  0  0  0  0  0  0
  -91.6924   38.9239   -4.1395 O   0  0  0  0  0  0  0  0  0  0  0  0
  -91.3431   37.5834   -4.3292 C   0  0  0  0  0  0  0  0  0  0  0  0
  -90.5033   37.5397   -5.5893 C   0  0  0  0  0  0  0  0  0  0  0  0
  -85.7819   38.3853   -6.3380 C   0  0  0  0  0  0  0  0  0  0  0  0
  -87.2792   38.3072   -6.6433 C   0  0  0  0  0  0  0  0  0  0  0  0
  -87.3604   37.7088   -8.0032 C   0  0  0  0  0  0  0  0  0  0  0  0
  -90.0494   24.7969    1.5255 C   0  0  0  0  0  0  0  0  0  0  0  0
  -90.3964   23.7749    1.9392 N   0  0  0  0  0  0  0  0  0  0  0  0
 34 35  1  0  0  0
 35 36  1  0  0  0
 35 22  1  0  0  0
 22 28  1  0  0  0
 28 29  1  0  0  0
 29 30  1  0  0  0
 30 31  1  0  0  0
 31 32  1  0  0  0
 32 33  1  0  0  0
 22 23  1  0  0  0
 23 24  1  0  0  0
 24 25  1  0  0  0
 25  1  1  0  0  0
  1  2  2  0  0  0
  2  3  1  0  0  0
  3  4  2  0  0  0
  4  5  1  0  0  0
  5  6  2  0  0  0
  4  7  1  0  0  0
  7  8  2  0  0  0
  7  9  1  0  0  0
  9 10  2  0  0  0
 10 11  1  0  0  0
 11 12  1  0  0  0
 12 13  2  0  0  0
 13 14  1  0  0  0
 14 37  1  0  0  0
 37 38  3  0  0  0
 14 15  2  0  0  0
 15 16  1  0  0  0
 16 17  2  0  0  0
 10 18  1  0  0  0
 18 19  1  0  0  0
 18 20  1  0  0  0
 25 26  1  0  0  0
 26 27  1  0  0  0
 27 22  1  0  0  0
 33 28  1  0  0  0
  6  1  1  0  0  0
 17  9  1  0  0  0
 18  3  1  0  0  0
 17 12  1  0  0  0
 11 21  1  0  0  0
M  END
> <minimizedAffinity>
-7.76100

> <CNNscore>
0.0592503734

> <CNNaffinity>
6.0555429459

> <CNN_VS>
0.3587931693

> <CNNaffinity_variance>
0.4836660326

$$$$
[H]c1nc(N2C([H])([H])C([H])([H])C(N3C([H])([H])C([H])([H])OC([H])([H])C3([H])[H])(C([H])(C([H])([H])[H])C([H])([H])[H])C([H])([H])C2([H])[H])c([H])c2c1C(=O)c1c(n([H])c3c([H])c(C#N)c([H])c([H])c13)C2(C([H])([H])[H])C([H])([H])[H]


 38 43  0  0  0  0  0  0  0  0999 V2000
  -88.1854   33.6085   -2.9135 C   0  0  0  0  0  0  0  0  0  0  0  0
  -89.1104   32.5985   -2.8694 C   0  0  0  0  0  0  0  0  0  0  0  0
  -88.9917   31.5345   -1.9645 C   0  0  0  0  0  0  0  0  0  0  0  0
  -87.9117   31.5399   -1.1205 C   0  0  0  0  0  0  0  0  0  0  0  0
  -86.9910   32.5720   -1.1849 C   0  0  0  0  0  0  0  0  0  0  0  0
  -87.1425   33.5718   -2.0667 N   0  0  0  0  0  0  0  0  0  0  0  0
  -87.7408   30.4607   -0.1620 C   0  0  0  0  0  0  0  0  0  0  0  0
  -86.7449   30.4571    0.6227 O   0  0  0  0  0  0  0  0  0  0  0  0
  -88.7226   29.3942   -0.1182 C   0  0  0  0  0  0  0  0  0  0  0  0
  -89.7875   29.4335   -0.9843 C   0  0  0  0  0  0  0  0  0  0  0  0
  -90.5671   28.3383   -0.7601 N   0  0  0  0  0  0  0  0  0  0  0  0
  -90.0243   27.5962    0.2326 C   0  0  0  0  0  0  0  0  0  0  0  0
  -90.4131   26.4112    0.8318 C   0  0  0  0  0  0  0  0  0  0  0  0
  -89.6485   25.8785    1.8388 C   0  0  0  0  0  0  0  0  0  0  0  0
  -88.5068   26.5510    2.2222 C   0  0  0  0  0  0  0  0  0  0  0  0
  -88.1174   27.7301    1.6277 C   0  0  0  0  0  0  0  0  0  0  0  0
  -88.8789   28.2576    0.6270 C   0  0  0  0  0  0  0  0  0  0  0  0
  -90.0159   30.4907   -1.9703 C   0  0  0  0  0  0  0  0  0  0  0  0
  -91.3999   31.0845   -1.6734 C   0  0  0  0  0  0  0  0  0  0  0  0
  -90.1565   29.8115   -3.3316 C   0  0  0  0  0  0  0  0  0  0  0  0
  -91.4431   28.0754   -1.2468 H   0  0  0  0  0  0  0  0  0  0  0  0
  -88.5596   37.2049   -5.4470 C   0  0  0  0  0  0  0  0  0  0  0  0
  -89.5930   36.6341   -4.4522 C   0  0  0  0  0  0  0  0  0  0  0  0
  -89.5786   35.1418   -4.3705 C   0  0  0  0  0  0  0  0  0  0  0  0
  -88.3053   34.6988   -3.8368 N   0  0  0  0  0  0  0  0  0  0  0  0
  -87.1478   35.4470   -4.3116 C   0  0  0  0  0  0  0  0  0  0  0  0
  -87.5820   36.0628   -5.6251 C   0  0  0  0  0  0  0  0  0  0  0  0
  -88.0145   38.3247   -4.8156 N   0  0  0  0  0  0  0  0  0  0  0  0
  -86.8996   39.0068   -5.2275 C   0  0  0  0  0  0  0  0  0  0  0  0
  -85.9465   39.3211   -4.1000 C   0  0  0  0  0  0  0  0  0  0  0  0
  -86.5661   39.7234   -2.9471 O   0  0  0  0  0  0  0  0  0  0  0  0
  -87.5530   38.8243   -2.5319 C   0  0  0  0  0  0  0  0  0  0  0  0
  -88.5980   38.8077   -3.6285 C   0  0  0  0  0  0  0  0  0  0  0  0
  -89.4089   36.3337   -7.6668 C   0  0  0  0  0  0  0  0  0  0  0  0
  -89.2121   37.5401   -6.7463 C   0  0  0  0  0  0  0  0  0  0  0  0
  -90.5392   38.2119   -6.7092 C   0  0  0  0  0  0  0  0  0  0  0  0
  -90.0285   24.6307    2.4930 C   0  0  0  0  0  0  0  0  0  0  0  0
  -90.3146   23.6349    3.0057 N   0  0  0  0  0  0  0  0  0  0  0  0
 34 35  1  0  0  0
 35 36  1  0  0  0
 35 22  1  0  0  0
 22 28  1  0  0  0
 28 29  1  0  0  0
 29 30  1  0  0  0
 30 31  1  0  0  0
 31 32  1  0  0  0
 32 33  1  0  0  0
 22 23  1  0  0  0
 23 24  1  0  0  0
 24 25  1  0  0  0
 25  1  1  0  0  0
  1  2  2  0  0  0
  2  3  1  0  0  0
  3  4  2  0  0  0
  4  5  1  0  0  0
  5  6  2  0  0  0
  4  7  1  0  0  0
  7  8  2  0  0  0
  7  9  1  0  0  0
  9 10  2  0  0  0
 10 11  1  0  0  0
 11 12  1  0  0  0
 12 13  2  0  0  0
 13 14  1  0  0  0
 14 37  1  0  0  0
 37 38  3  0  0  0
 14 15  2  0  0  0
 15 16  1  0  0  0
 16 17  2  0  0  0
 10 18  1  0  0  0
 18 19  1  0  0  0
 18 20  1  0  0  0
 25 26  1  0  0  0
 26 27  1  0  0  0
 27 22  1  0  0  0
 33 28  1  0  0  0
  6  1  1  0  0  0
 17  9  1  0  0  0
 18  3  1  0  0  0
 17 12  1  0  0  0
 11 21  1  0  0  0
M  END
> <minimizedAffinity>
-7.68067

> <CNNscore>
0.0528580695

> <CNNaffinity>
6.2114181519

> <CNN_VS>
0.3283235729

> <CNNaffinity_variance>
0.2397106439

$$$$
[H]OC(=O)c1c([H])c([H])nc([H])c1N([H])C([H])([H])C1([H])c2c([H])c([H])c(Sc3sc([H])c([H])c3[H])c([H])c2OC([H])([H])C1([H])[H]


 29 32  0  0  0  0  0  0  0  0999 V2000
  -88.2212   30.1088   -0.6770 C   0  0  0  0  0  0  0  0  0  0  0  0
  -88.8100   28.8424   -1.2782 C   0  0  0  0  0  0  0  0  0  0  0  0
  -88.0295   28.4376   -2.4904 C   0  0  0  0  0  0  0  0  0  0  0  0
  -87.8723   29.5049   -3.3761 O   0  0  0  0  0  0  0  0  0  0  0  0
  -88.1492   30.8272   -3.0289 C   0  0  0  0  0  0  0  0  0  0  0  0
  -88.2452   31.8083   -4.0240 C   0  0  0  0  0  0  0  0  0  0  0  0
  -88.5182   33.1255   -3.7087 C   0  0  0  0  0  0  0  0  0  0  0  0
  -88.6926   33.4367   -2.3760 C   0  0  0  0  0  0  0  0  0  0  0  0
  -88.5981   32.4614   -1.3769 C   0  0  0  0  0  0  0  0  0  0  0  0
  -88.3274   31.1699   -1.7198 C   0  0  0  0  0  0  0  0  0  0  0  0
  -86.7845   29.8215   -0.3360 C   0  0  0  0  0  0  0  0  0  0  0  0
  -86.2186   30.7767    0.6133 N   0  0  0  0  0  0  0  0  0  0  0  0
  -86.7686   31.0117    1.4586 H   0  0  0  0  0  0  0  0  0  0  0  0
  -83.8059   31.0200    1.0367 C   0  0  0  0  0  0  0  0  0  0  0  0
  -82.6412   31.7795    0.7822 C   0  0  0  0  0  0  0  0  0  0  0  0
  -82.6439   32.8570   -0.0529 C   0  0  0  0  0  0  0  0  0  0  0  0
  -83.7797   33.2089   -0.6502 N   0  0  0  0  0  0  0  0  0  0  0  0
  -84.9116   32.5265   -0.4448 C   0  0  0  0  0  0  0  0  0  0  0  0
  -84.9619   31.4115    0.4042 C   0  0  0  0  0  0  0  0  0  0  0  0
  -82.7881   29.0831    1.9877 O   0  0  0  0  0  0  0  0  0  0  0  0
  -83.7205   29.8758    1.8998 C   0  0  0  0  0  0  0  0  0  0  0  0
  -84.8129   29.6068    2.7519 O   0  0  0  0  0  0  0  0  0  0  0  0
  -85.4023   28.8014    2.6239 H   0  0  0  0  0  0  0  0  0  0  0  0
  -88.6232   34.3055   -5.0250 S   0  0  0  0  0  0  0  0  0  0  0  0
  -88.0948   35.9419   -4.4744 C   0  0  0  0  0  0  0  0  0  0  0  0
  -88.6382   36.6914   -3.4608 C   0  0  0  0  0  0  0  0  0  0  0  0
  -88.0776   37.8927   -3.2240 C   0  0  0  0  0  0  0  0  0  0  0  0
  -87.0182   38.2575   -4.0143 C   0  0  0  0  0  0  0  0  0  0  0  0
  -86.8372   36.9250   -5.0554 S   0  0  0  0  0  0  0  0  0  0  0  0
 20 21  2  0  0  0
 21 22  1  0  0  0
 21 14  1  0  0  0
 14 15  2  0  0  0
 15 16  1  0  0  0
 16 17  2  0  0  0
 17 18  1  0  0  0
 18 19  2  0  0  0
 19 12  1  0  0  0
 12 11  1  0  0  0
 11  1  1  0  0  0
  1  2  1  0  0  0
  2  3  1  0  0  0
  3  4  1  0  0  0
  4  5  1  0  0  0
  5  6  2  0  0  0
  6  7  1  0  0  0
  7 24  1  0  0  0
 24 25  1  0  0  0
 25 26  2  0  0  0
 26 27  1  0  0  0
 27 28  2  0  0  0
 28 29  1  0  0  0
  7  8  2  0  0  0
  8  9  1  0  0  0
  9 10  2  0  0  0
 19 14  1  0  0  0
 10  1  1  0  0  0
 10  5  1  0  0  0
 29 25  1  0  0  0
 22 23  1  0  0  0
 12 13  1  0  0  0
M  END
> <minimizedAffinity>
-8.26041

> <CNNscore>
0.6849495769

> <CNNaffinity>
6.8651647568

> <CNN_VS>
4.7022914886

> <CNNaffinity_variance>
0.1657356918

$$$$
[H]OC(=O)c1c([H])c([H])nc([H])c1N([H])C([H])([H])C1([H])c2c([H])c([H])c(Sc3sc([H])c([H])c3[H])c([H])c2OC([H])([H])C1([H])[H]


 29 32  0  0  0  0  0  0  0  0999 V2000
  -88.4137   29.5293   -0.5123 C   0  0  0  0  0  0  0  0  0  0  0  0
  -89.3276   28.6635   -1.3650 C   0  0  0  0  0  0  0  0  0  0  0  0
  -88.6467   28.3078   -2.6505 C   0  0  0  0  0  0  0  0  0  0  0  0
  -88.1295   29.4389   -3.2840 O   0  0  0  0  0  0  0  0  0  0  0  0
  -88.0099   30.6761   -2.6510 C   0  0  0  0  0  0  0  0  0  0  0  0
  -87.7542   31.8283   -3.4055 C   0  0  0  0  0  0  0  0  0  0  0  0
  -87.6309   33.0664   -2.8049 C   0  0  0  0  0  0  0  0  0  0  0  0
  -87.7694   33.1237   -1.4334 C   0  0  0  0  0  0  0  0  0  0  0  0
  -88.0249   31.9766   -0.6737 C   0  0  0  0  0  0  0  0  0  0  0  0
  -88.1412   30.7690   -1.2956 C   0  0  0  0  0  0  0  0  0  0  0  0
  -87.1505   28.7497   -0.2687 C   0  0  0  0  0  0  0  0  0  0  0  0
  -86.5189   29.0664    1.0099 N   0  0  0  0  0  0  0  0  0  0  0  0
  -87.0750   28.9439    1.8747 H   0  0  0  0  0  0  0  0  0  0  0  0
  -84.1826   28.8949    1.7661 C   0  0  0  0  0  0  0  0  0  0  0  0
  -82.9224   29.5314    1.8347 C   0  0  0  0  0  0  0  0  0  0  0  0
  -82.6931   30.7526    1.2741 C   0  0  0  0  0  0  0  0  0  0  0  0
  -83.6872   31.3697    0.6403 N   0  0  0  0  0  0  0  0  0  0  0  0
  -84.9002   30.8140    0.5458 C   0  0  0  0  0  0  0  0  0  0  0  0
  -85.1874   29.5604    1.1049 C   0  0  0  0  0  0  0  0  0  0  0  0
  -85.3148   26.8515    2.2509 O   0  0  0  0  0  0  0  0  0  0  0  0
  -84.3414   27.5922    2.3485 C   0  0  0  0  0  0  0  0  0  0  0  0
  -83.2792   27.0802    3.1240 O   0  0  0  0  0  0  0  0  0  0  0  0
  -83.3602   26.9508    4.1185 H   0  0  0  0  0  0  0  0  0  0  0  0
  -87.3076   34.4744   -3.8291 S   0  0  0  0  0  0  0  0  0  0  0  0
  -88.7521   35.5535   -3.9250 C   0  0  0  0  0  0  0  0  0  0  0  0
  -90.0687   35.1722   -3.9988 C   0  0  0  0  0  0  0  0  0  0  0  0
  -90.9851   36.1570   -4.0627 C   0  0  0  0  0  0  0  0  0  0  0  0
  -90.5215   37.4473   -4.0485 C   0  0  0  0  0  0  0  0  0  0  0  0
  -88.8355   37.2501   -3.9472 S   0  0  0  0  0  0  0  0  0  0  0  0
 20 21  2  0  0  0
 21 22  1  0  0  0
 21 14  1  0  0  0
 14 15  2  0  0  0
 15 16  1  0  0  0
 16 17  2  0  0  0
 17 18  1  0  0  0
 18 19  2  0  0  0
 19 12  1  0  0  0
 12 11  1  0  0  0
 11  1  1  0  0  0
  1  2  1  0  0  0
  2  3  1  0  0  0
  3  4  1  0  0  0
  4  5  1  0  0  0
  5  6  2  0  0  0
  6  7  1  0  0  0
  7 24  1  0  0  0
 24 25  1  0  0  0
 25 26  2  0  0  0
 26 27  1  0  0  0
 27 28  2  0  0  0
 28 29  1  0  0  0
  7  8  2  0  0  0
  8  9  1  0  0  0
  9 10  2  0  0  0
 19 14  1  0  0  0
 10  1  1  0  0  0
 10  5  1  0  0  0
 29 25  1  0  0  0
 22 23  1  0  0  0
 12 13  1  0  0  0
M  END
> <minimizedAffinity>
-8.59350

> <CNNscore>
0.6305513382

> <CNNaffinity>
6.9423818588

> <CNN_VS>
4.3775281906

> <CNNaffinity_variance>
0.3514036536

$$$$
[H]OC(=O)c1c([H])c([H])nc([H])c1N([H])C([H])([H])C1([H])c2c([H])c([H])c(Sc3sc([H])c([H])c3[H])c([H])c2OC([H])([H])C1([H])[H]


 29 32  0  0  0  0  0  0  0  0999 V2000
  -87.5215   30.8243   -2.1063 C   0  0  0  0  0  0  0  0  0  0  0  0
  -88.6725   31.1792   -3.0342 C   0  0  0  0  0  0  0  0  0  0  0  0
  -89.9135   31.4397   -2.2377 C   0  0  0  0  0  0  0  0  0  0  0  0
  -90.1676   30.4052   -1.3357 O   0  0  0  0  0  0  0  0  0  0  0  0
  -89.2284   29.4225   -1.0228 C   0  0  0  0  0  0  0  0  0  0  0  0
  -89.6248   28.2653   -0.3403 C   0  0  0  0  0  0  0  0  0  0  0  0
  -88.7159   27.2761   -0.0175 C   0  0  0  0  0  0  0  0  0  0  0  0
  -87.4031   27.4723   -0.3935 C   0  0  0  0  0  0  0  0  0  0  0  0
  -87.0004   28.6260   -1.0755 C   0  0  0  0  0  0  0  0  0  0  0  0
  -87.9210   29.5844   -1.3798 C   0  0  0  0  0  0  0  0  0  0  0  0
  -87.3346   31.9761   -1.1570 C   0  0  0  0  0  0  0  0  0  0  0  0
  -86.5220   31.6332    0.0075 N   0  0  0  0  0  0  0  0  0  0  0  0
  -86.9959   31.2253    0.8328 H   0  0  0  0  0  0  0  0  0  0  0  0
  -84.2591   31.1199    0.8293 C   0  0  0  0  0  0  0  0  0  0  0  0
  -82.8975   31.4997    0.8305 C   0  0  0  0  0  0  0  0  0  0  0  0
  -82.4367   32.5559    0.1021 C   0  0  0  0  0  0  0  0  0  0  0  0
  -83.2949   33.2557   -0.6358 N   0  0  0  0  0  0  0  0  0  0  0  0
  -84.5944   32.9411   -0.6732 C   0  0  0  0  0  0  0  0  0  0  0  0
  -85.1184   31.8647    0.0571 C   0  0  0  0  0  0  0  0  0  0  0  0
  -85.8112   29.6641    1.9080 O   0  0  0  0  0  0  0  0  0  0  0  0
  -84.6666   29.9742    1.5926 C   0  0  0  0  0  0  0  0  0  0  0  0
  -83.6643   29.0892    2.0440 O   0  0  0  0  0  0  0  0  0  0  0  0
  -83.4376   28.9946    3.0198 H   0  0  0  0  0  0  0  0  0  0  0  0
  -89.2970   25.8434    0.8463 S   0  0  0  0  0  0  0  0  0  0  0  0
  -89.6780   26.2326    2.5677 C   0  0  0  0  0  0  0  0  0  0  0  0
  -89.5443   27.4476    3.1925 C   0  0  0  0  0  0  0  0  0  0  0  0
  -89.8918   27.5053    4.4923 C   0  0  0  0  0  0  0  0  0  0  0  0
  -90.3461   26.3490    5.0723 C   0  0  0  0  0  0  0  0  0  0  0  0
  -90.2757   25.2251    3.7979 S   0  0  0  0  0  0  0  0  0  0  0  0
 20 21  2  0  0  0
 21 22  1  0  0  0
 21 14  1  0  0  0
 14 15  2  0  0  0
 15 16  1  0  0  0
 16 17  2  0  0  0
 17 18  1  0  0  0
 18 19  2  0  0  0
 19 12  1  0  0  0
 12 11  1  0  0  0
 11  1  1  0  0  0
  1  2  1  0  0  0
  2  3  1  0  0  0
  3  4  1  0  0  0
  4  5  1  0  0  0
  5  6  2  0  0  0
  6  7  1  0  0  0
  7 24  1  0  0  0
 24 25  1  0  0  0
 25 26  2  0  0  0
 26 27  1  0  0  0
 27 28  2  0  0  0
 28 29  1  0  0  0
  7  8  2  0  0  0
  8  9  1  0  0  0
  9 10  2  0  0  0
 19 14  1  0  0  0
 10  1  1  0  0  0
 10  5  1  0  0  0
 29 25  1  0  0  0
 22 23  1  0  0  0
 12 13  1  0  0  0
M  END
> <minimizedAffinity>
-7.88500

> <CNNscore>
0.5044797659

> <CNNaffinity>
6.5768189430

> <CNN_VS>
3.3178720474

> <CNNaffinity_variance>
0.0892933458

$$$$
[H]OC(=O)c1c([H])c([H])nc([H])c1N([H])C([H])([H])C1([H])c2c([H])c([H])c(Sc3sc([H])c([H])c3[H])c([H])c2OC([H])([H])C1([H])[H]


 29 32  0  0  0  0  0  0  0  0999 V2000
  -84.7878   30.9948    0.4689 C   0  0  0  0  0  0  0  0  0  0  0  0
  -83.4635   31.3406   -0.1934 C   0  0  0  0  0  0  0  0  0  0  0  0
  -83.2308   32.8188   -0.1367 C   0  0  0  0  0  0  0  0  0  0  0  0
  -84.3382   33.5281   -0.6042 O   0  0  0  0  0  0  0  0  0  0  0  0
  -85.5861   32.9394   -0.8093 C   0  0  0  0  0  0  0  0  0  0  0  0
  -86.5713   33.6191   -1.5370 C   0  0  0  0  0  0  0  0  0  0  0  0
  -87.8157   33.0599   -1.7552 C   0  0  0  0  0  0  0  0  0  0  0  0
  -88.0501   31.8065   -1.2287 C   0  0  0  0  0  0  0  0  0  0  0  0
  -87.0704   31.1220   -0.5008 C   0  0  0  0  0  0  0  0  0  0  0  0
  -85.8518   31.7003   -0.3023 C   0  0  0  0  0  0  0  0  0  0  0  0
  -84.7255   31.4882    1.8886 C   0  0  0  0  0  0  0  0  0  0  0  0
  -84.8959   30.4230    2.8737 N   0  0  0  0  0  0  0  0  0  0  0  0
  -84.5920   30.6027    3.8471 H   0  0  0  0  0  0  0  0  0  0  0  0
  -84.6564   28.0337    2.3320 C   0  0  0  0  0  0  0  0  0  0  0  0
  -85.3191   26.8470    1.9438 C   0  0  0  0  0  0  0  0  0  0  0  0
  -86.6709   26.7902    1.7773 C   0  0  0  0  0  0  0  0  0  0  0  0
  -87.3944   27.8874    1.9861 N   0  0  0  0  0  0  0  0  0  0  0  0
  -86.8194   29.0377    2.3539 C   0  0  0  0  0  0  0  0  0  0  0  0
  -85.4337   29.1485    2.5384 C   0  0  0  0  0  0  0  0  0  0  0  0
  -82.4261   28.8663    2.1755 O   0  0  0  0  0  0  0  0  0  0  0  0
  -83.2337   28.0103    2.5231 C   0  0  0  0  0  0  0  0  0  0  0  0
  -82.6724   26.8939    3.1790 O   0  0  0  0  0  0  0  0  0  0  0  0
  -82.0840   26.2342    2.6983 H   0  0  0  0  0  0  0  0  0  0  0  0
  -89.0063   33.9839   -2.6853 S   0  0  0  0  0  0  0  0  0  0  0  0
  -88.2098   35.2897   -3.6448 C   0  0  0  0  0  0  0  0  0  0  0  0
  -87.5418   35.1536   -4.8362 C   0  0  0  0  0  0  0  0  0  0  0  0
  -87.0238   36.2737   -5.3752 C   0  0  0  0  0  0  0  0  0  0  0  0
  -87.2097   37.4451   -4.6873 C   0  0  0  0  0  0  0  0  0  0  0  0
  -88.0943   36.9532   -3.3206 S   0  0  0  0  0  0  0  0  0  0  0  0
 20 21  2  0  0  0
 21 22  1  0  0  0
 21 14  1  0  0  0
 14 15  2  0  0  0
 15 16  1  0  0  0
 16 17  2  0  0  0
 17 18  1  0  0  0
 18 19  2  0  0  0
 19 12  1  0  0  0
 12 11  1  0  0  0
 11  1  1  0  0  0
  1  2  1  0  0  0
  2  3  1  0  0  0
  3  4  1  0  0  0
  4  5  1  0  0  0
  5  6  2  0  0  0
  6  7  1  0  0  0
  7 24  1  0  0  0
 24 25  1  0  0  0
 25 26  2  0  0  0
 26 27  1  0  0  0
 27 28  2  0  0  0
 28 29  1  0  0  0
  7  8  2  0  0  0
  8  9  1  0  0  0
  9 10  2  0  0  0
 19 14  1  0  0  0
 10  1  1  0  0  0
 10  5  1  0  0  0
 29 25  1  0  0  0
 22 23  1  0  0  0
 12 13  1  0  0  0
M  END
> <minimizedAffinity>
-8.79375

> <CNNscore>
0.4293513000

> <CNNaffinity>
6.7262010574

> <CNN_VS>
2.8879032135

> <CNNaffinity_variance>
0.0599604845

$$$$
[H]OC(=O)c1c([H])c([H])nc([H])c1N([H])C([H])([H])C1([H])c2c([H])c([H])c(Sc3sc([H])c([H])c3[H])c([H])c2OC([H])([H])C1([H])[H]


 29 32  0  0  0  0  0  0  0  0999 V2000
  -88.9568   28.3789    0.7310 C   0  0  0  0  0  0  0  0  0  0  0  0
  -89.5169   27.0208    0.3389 C   0  0  0  0  0  0  0  0  0  0  0  0
  -88.5280   26.2821   -0.5090 C   0  0  0  0  0  0  0  0  0  0  0  0
  -88.0727   27.0709   -1.5666 O   0  0  0  0  0  0  0  0  0  0  0  0
  -88.2897   28.4471   -1.6360 C   0  0  0  0  0  0  0  0  0  0  0  0
  -88.0637   29.1332   -2.8362 C   0  0  0  0  0  0  0  0  0  0  0  0
  -88.2702   30.4958   -2.9332 C   0  0  0  0  0  0  0  0  0  0  0  0
  -88.7076   31.1542   -1.8025 C   0  0  0  0  0  0  0  0  0  0  0  0
  -88.9353   30.4749   -0.6004 C   0  0  0  0  0  0  0  0  0  0  0  0
  -88.7223   29.1298   -0.5362 C   0  0  0  0  0  0  0  0  0  0  0  0
  -87.6682   28.1401    1.4696 C   0  0  0  0  0  0  0  0  0  0  0  0
  -86.4875   28.2706    0.6193 N   0  0  0  0  0  0  0  0  0  0  0  0
  -86.4336   27.6903   -0.2366 H   0  0  0  0  0  0  0  0  0  0  0  0
  -84.3822   28.7861    1.7862 C   0  0  0  0  0  0  0  0  0  0  0  0
  -83.4052   29.7694    2.0632 C   0  0  0  0  0  0  0  0  0  0  0  0
  -83.4576   31.0193    1.5216 C   0  0  0  0  0  0  0  0  0  0  0  0
  -84.4613   31.3280    0.7042 N   0  0  0  0  0  0  0  0  0  0  0  0
  -85.4137   30.4367    0.4082 C   0  0  0  0  0  0  0  0  0  0  0  0
  -85.4056   29.1386    0.9388 C   0  0  0  0  0  0  0  0  0  0  0  0
  -85.0448   26.5524    2.2993 O   0  0  0  0  0  0  0  0  0  0  0  0
  -84.2432   27.4792    2.3640 C   0  0  0  0  0  0  0  0  0  0  0  0
  -83.0672   27.1994    3.0923 O   0  0  0  0  0  0  0  0  0  0  0  0
  -83.0791   27.0563    4.0882 H   0  0  0  0  0  0  0  0  0  0  0  0
  -87.9617   31.2890   -4.4862 S   0  0  0  0  0  0  0  0  0  0  0  0
  -87.9276   33.0850   -4.3031 C   0  0  0  0  0  0  0  0  0  0  0  0
  -87.0941   33.8208   -3.4981 C   0  0  0  0  0  0  0  0  0  0  0  0
  -87.2489   35.1583   -3.5221 C   0  0  0  0  0  0  0  0  0  0  0  0
  -88.2220   35.6626   -4.3460 C   0  0  0  0  0  0  0  0  0  0  0  0
  -88.8865   34.2677   -5.0564 S   0  0  0  0  0  0  0  0  0  0  0  0
 20 21  2  0  0  0
 21 22  1  0  0  0
 21 14  1  0  0  0
 14 15  2  0  0  0
 15 16  1  0  0  0
 16 17  2  0  0  0
 17 18  1  0  0  0
 18 19  2  0  0  0
 19 12  1  0  0  0
 12 11  1  0  0  0
 11  1  1  0  0  0
  1  2  1  0  0  0
  2  3  1  0  0  0
  3  4  1  0  0  0
  4  5  1  0  0  0
  5  6  2  0  0  0
  6  7  1  0  0  0
  7 24  1  0  0  0
 24 25  1  0  0  0
 25 26  2  0  0  0
 26 27  1  0  0  0
 27 28  2  0  0  0
 28 29  1  0  0  0
  7  8  2  0  0  0
  8  9  1  0  0  0
  9 10  2  0  0  0
 19 14  1  0  0  0
 10  1  1  0  0  0
 10  5  1  0  0  0
 29 25  1  0  0  0
 22 23  1  0  0  0
 12 13  1  0  0  0
M  END
> <minimizedAffinity>
-8.21791

> <CNNscore>
0.3805267513

> <CNNaffinity>
6.7144913673

> <CNN_VS>
2.5550436974

> <CNNaffinity_variance>
0.1147219092

$$$$
[H]OC(=O)c1c([H])c([H])nc([H])c1N([H])C([H])([H])C1([H])c2c([H])c([H])c(Sc3sc([H])c([H])c3[H])c([H])c2OC([H])([H])C1([H])[H]


 29 32  0  0  0  0  0  0  0  0999 V2000
  -86.8401   33.5800   -1.2532 C   0  0  0  0  0  0  0  0  0  0  0  0
  -85.8189   33.7229   -0.1358 C   0  0  0  0  0  0  0  0  0  0  0  0
  -84.8553   32.5771   -0.1702 C   0  0  0  0  0  0  0  0  0  0  0  0
  -85.5213   31.3515   -0.2206 O   0  0  0  0  0  0  0  0  0  0  0  0
  -86.8830   31.2380   -0.5012 C   0  0  0  0  0  0  0  0  0  0  0  0
  -87.5498   30.0293   -0.2632 C   0  0  0  0  0  0  0  0  0  0  0  0
  -88.8978   29.8888   -0.5319 C   0  0  0  0  0  0  0  0  0  0  0  0
  -89.5612   30.9849   -1.0435 C   0  0  0  0  0  0  0  0  0  0  0  0
  -88.9012   32.1952   -1.2836 C   0  0  0  0  0  0  0  0  0  0  0  0
  -87.5703   32.3027   -1.0081 C   0  0  0  0  0  0  0  0  0  0  0  0
  -86.0843   33.5352   -2.5531 C   0  0  0  0  0  0  0  0  0  0  0  0
  -86.8311   32.8869   -3.6283 N   0  0  0  0  0  0  0  0  0  0  0  0
  -86.5704   31.9202   -3.8923 H   0  0  0  0  0  0  0  0  0  0  0  0
  -88.8732   32.8686   -5.0028 C   0  0  0  0  0  0  0  0  0  0  0  0
  -89.8122   33.6458   -5.7185 C   0  0  0  0  0  0  0  0  0  0  0  0
  -89.7493   35.0070   -5.7589 C   0  0  0  0  0  0  0  0  0  0  0  0
  -88.7719   35.6286   -5.1038 N   0  0  0  0  0  0  0  0  0  0  0  0
  -87.8558   34.9428   -4.4113 C   0  0  0  0  0  0  0  0  0  0  0  0
  -87.8762   33.5425   -4.3383 C   0  0  0  0  0  0  0  0  0  0  0  0
  -88.1262   30.6031   -4.9645 O   0  0  0  0  0  0  0  0  0  0  0  0
  -89.0226   31.4409   -4.9749 C   0  0  0  0  0  0  0  0  0  0  0  0
  -90.3313   30.9129   -4.9574 O   0  0  0  0  0  0  0  0  0  0  0  0
  -90.7108   30.4045   -5.7384 H   0  0  0  0  0  0  0  0  0  0  0  0
  -89.6670   28.3279   -0.2031 S   0  0  0  0  0  0  0  0  0  0  0  0
  -89.9612   28.1081    1.5647 C   0  0  0  0  0  0  0  0  0  0  0  0
  -91.0035   28.6135    2.3012 C   0  0  0  0  0  0  0  0  0  0  0  0
  -91.0198   28.3189    3.6152 C   0  0  0  0  0  0  0  0  0  0  0  0
  -89.9970   27.5432    4.0970 C   0  0  0  0  0  0  0  0  0  0  0  0
  -89.0510   27.2505    2.7145 S   0  0  0  0  0  0  0  0  0  0  0  0
 20 21  2  0  0  0
 21 22  1  0  0  0
 21 14  1  0  0  0
 14 15  2  0  0  0
 15 16  1  0  0  0
 16 17  2  0  0  0
 17 18  1  0  0  0
 18 19  2  0  0  0
 19 12  1  0  0  0
 12 11  1  0  0  0
 11  1  1  0  0  0
  1  2  1  0  0  0
  2  3  1  0  0  0
  3  4  1  0  0  0
  4  5  1  0  0  0
  5  6  2  0  0  0
  6  7  1  0  0  0
  7 24  1  0  0  0
 24 25  1  0  0  0
 25 26  2  0  0  0
 26 27  1  0  0  0
 27 28  2  0  0  0
 28 29  1  0  0  0
  7  8  2  0  0  0
  8  9  1  0  0  0
  9 10  2  0  0  0
 19 14  1  0  0  0
 10  1  1  0  0  0
 10  5  1  0  0  0
 29 25  1  0  0  0
 22 23  1  0  0  0
 12 13  1  0  0  0
M  END
> <minimizedAffinity>
-8.11403

> <CNNscore>
0.3558091819

> <CNNaffinity>
6.2151694298

> <CNN_VS>
2.2114143372

> <CNNaffinity_variance>
0.1401687711

$$$$
[H]OC(=O)c1c([H])c([H])nc([H])c1N([H])C([H])([H])C1([H])c2c([H])c([H])c(Sc3sc([H])c([H])c3[H])c([H])c2OC([H])([H])C1([H])[H]


 29 32  0  0  0  0  0  0  0  0999 V2000
  -90.1413   27.8408   -1.6915 C   0  0  0  0  0  0  0  0  0  0  0  0
  -90.8556   26.7077   -0.9721 C   0  0  0  0  0  0  0  0  0  0  0  0
  -91.1785   27.1133    0.4328 C   0  0  0  0  0  0  0  0  0  0  0  0
  -90.0569   27.6259    1.0866 O   0  0  0  0  0  0  0  0  0  0  0  0
  -88.8849   27.9813    0.4190 C   0  0  0  0  0  0  0  0  0  0  0  0
  -87.7096   28.2189    1.1431 C   0  0  0  0  0  0  0  0  0  0  0  0
  -86.5347   28.5724    0.5078 C   0  0  0  0  0  0  0  0  0  0  0  0
  -86.5642   28.6822   -0.8671 C   0  0  0  0  0  0  0  0  0  0  0  0
  -87.7348   28.4462   -1.5966 C   0  0  0  0  0  0  0  0  0  0  0  0
  -88.8785   28.0989   -0.9408 C   0  0  0  0  0  0  0  0  0  0  0  0
  -91.0492   29.0398   -1.6596 C   0  0  0  0  0  0  0  0  0  0  0  0
  -90.6687   30.0727   -2.6200 N   0  0  0  0  0  0  0  0  0  0  0  0
  -91.0574   30.0179   -3.5782 H   0  0  0  0  0  0  0  0  0  0  0  0
  -88.7851   31.5663   -3.1495 C   0  0  0  0  0  0  0  0  0  0  0  0
  -87.9212   32.5787   -2.6731 C   0  0  0  0  0  0  0  0  0  0  0  0
  -88.0427   33.1095   -1.4234 C   0  0  0  0  0  0  0  0  0  0  0  0
  -89.0058   32.6615   -0.6217 N   0  0  0  0  0  0  0  0  0  0  0  0
  -89.8506   31.7043   -1.0206 C   0  0  0  0  0  0  0  0  0  0  0  0
  -89.7680   31.1260   -2.2955 C   0  0  0  0  0  0  0  0  0  0  0  0
  -87.5775   30.7106   -5.0207 O   0  0  0  0  0  0  0  0  0  0  0  0
  -88.6205   31.0797   -4.4902 C   0  0  0  0  0  0  0  0  0  0  0  0
  -89.7650   31.0064   -5.3126 O   0  0  0  0  0  0  0  0  0  0  0  0
  -89.8854   31.6053   -6.1122 H   0  0  0  0  0  0  0  0  0  0  0  0
  -85.0920   28.8557    1.4950 S   0  0  0  0  0  0  0  0  0  0  0  0
  -84.2111   30.3341    0.9491 C   0  0  0  0  0  0  0  0  0  0  0  0
  -82.8594   30.5648    1.0121 C   0  0  0  0  0  0  0  0  0  0  0  0
  -82.4212   31.7484    0.5425 C   0  0  0  0  0  0  0  0  0  0  0  0
  -83.3618   32.6134    0.0455 C   0  0  0  0  0  0  0  0  0  0  0  0
  -84.8172   31.7570    0.2463 S   0  0  0  0  0  0  0  0  0  0  0  0
 20 21  2  0  0  0
 21 22  1  0  0  0
 21 14  1  0  0  0
 14 15  2  0  0  0
 15 16  1  0  0  0
 16 17  2  0  0  0
 17 18  1  0  0  0
 18 19  2  0  0  0
 19 12  1  0  0  0
 12 11  1  0  0  0
 11  1  1  0  0  0
  1  2  1  0  0  0
  2  3  1  0  0  0
  3  4  1  0  0  0
  4  5  1  0  0  0
  5  6  2  0  0  0
  6  7  1  0  0  0
  7 24  1  0  0  0
 24 25  1  0  0  0
 25 26  2  0  0  0
 26 27  1  0  0  0
 27 28  2  0  0  0
 28 29  1  0  0  0
  7  8  2  0  0  0
  8  9  1  0  0  0
  9 10  2  0  0  0
 19 14  1  0  0  0
 10  1  1  0  0  0
 10  5  1  0  0  0
 29 25  1  0  0  0
 22 23  1  0  0  0
 12 13  1  0  0  0
M  END
> <minimizedAffinity>
-8.04701

> <CNNscore>
0.3155114949

> <CNNaffinity>
6.2083005905

> <CNN_VS>
1.9587901831

> <CNNaffinity_variance>
0.5507014990

$$$$
[H]OC(=O)c1c([H])c([H])nc([H])c1N([H])C([H])([H])C1([H])c2c([H])c([H])c(Sc3sc([H])c([H])c3[H])c([H])c2OC([H])([H])C1([H])[H]


 29 32  0  0  0  0  0  0  0  0999 V2000
  -87.9972   30.1459   -0.7241 C   0  0  0  0  0  0  0  0  0  0  0  0
  -88.7465   28.9511   -1.2922 C   0  0  0  0  0  0  0  0  0  0  0  0
  -88.0822   28.4771   -2.5478 C   0  0  0  0  0  0  0  0  0  0  0  0
  -87.8669   29.5291   -3.4396 O   0  0  0  0  0  0  0  0  0  0  0  0
  -87.9860   30.8703   -3.0752 C   0  0  0  0  0  0  0  0  0  0  0  0
  -88.0371   31.8633   -4.0618 C   0  0  0  0  0  0  0  0  0  0  0  0
  -88.1547   33.1992   -3.7294 C   0  0  0  0  0  0  0  0  0  0  0  0
  -88.2199   33.5169   -2.3885 C   0  0  0  0  0  0  0  0  0  0  0  0
  -88.1693   32.5298   -1.3978 C   0  0  0  0  0  0  0  0  0  0  0  0
  -88.0530   31.2199   -1.7575 C   0  0  0  0  0  0  0  0  0  0  0  0
  -86.5806   29.7101   -0.4667 C   0  0  0  0  0  0  0  0  0  0  0  0
  -86.1378   29.9776    0.8995 N   0  0  0  0  0  0  0  0  0  0  0  0
  -86.6861   30.6452    1.4704 H   0  0  0  0  0  0  0  0  0  0  0  0
  -83.7404   29.9881    1.4580 C   0  0  0  0  0  0  0  0  0  0  0  0
  -82.6573   29.2531    1.9915 C   0  0  0  0  0  0  0  0  0  0  0  0
  -82.8089   27.9937    2.4909 C   0  0  0  0  0  0  0  0  0  0  0  0
  -84.0161   27.4339    2.4769 N   0  0  0  0  0  0  0  0  0  0  0  0
  -85.0760   28.0835    1.9831 C   0  0  0  0  0  0  0  0  0  0  0  0
  -84.9731   29.3798    1.4581 C   0  0  0  0  0  0  0  0  0  0  0  0
  -84.3625   32.1557    0.6794 O   0  0  0  0  0  0  0  0  0  0  0  0
  -83.5132   31.3236    0.9825 C   0  0  0  0  0  0  0  0  0  0  0  0
  -82.1777   31.7559    0.8369 O   0  0  0  0  0  0  0  0  0  0  0  0
  -81.7714   31.9349   -0.0661 H   0  0  0  0  0  0  0  0  0  0  0  0
  -88.2127   34.3934   -5.0358 S   0  0  0  0  0  0  0  0  0  0  0  0
  -87.8551   36.0514   -4.4169 C   0  0  0  0  0  0  0  0  0  0  0  0
  -88.4882   36.7083   -3.3913 C   0  0  0  0  0  0  0  0  0  0  0  0
  -88.0505   37.9481   -3.1002 C   0  0  0  0  0  0  0  0  0  0  0  0
  -87.0152   38.4407   -3.8522 C   0  0  0  0  0  0  0  0  0  0  0  0
  -86.6861   37.1704   -4.9339 S   0  0  0  0  0  0  0  0  0  0  0  0
 20 21  2  0  0  0
 21 22  1  0  0  0
 21 14  1  0  0  0
 14 15  2  0  0  0
 15 16  1  0  0  0
 16 17  2  0  0  0
 17 18  1  0  0  0
 18 19  2  0  0  0
 19 12  1  0  0  0
 12 11  1  0  0  0
 11  1  1  0  0  0
  1  2  1  0  0  0
  2  3  1  0  0  0
  3  4  1  0  0  0
  4  5  1  0  0  0
  5  6  2  0  0  0
  6  7  1  0  0  0
  7 24  1  0  0  0
 24 25  1  0  0  0
 25 26  2  0  0  0
 26 27  1  0  0  0
 27 28  2  0  0  0
 28 29  1  0  0  0
  7  8  2  0  0  0
  8  9  1  0  0  0
  9 10  2  0  0  0
 19 14  1  0  0  0
 10  1  1  0  0  0
 10  5  1  0  0  0
 29 25  1  0  0  0
 22 23  1  0  0  0
 12 13  1  0  0  0
M  END
> <minimizedAffinity>
-8.71833

> <CNNscore>
0.2766827643

> <CNNaffinity>
6.2370371819

> <CNN_VS>
1.7256807089

> <CNNaffinity_variance>
0.0892673433

$$$$
[H]OC(=O)c1c([H])c([H])nc([H])c1N([H])C([H])([H])C1([H])c2c([H])c([H])c(Sc3sc([H])c([H])c3[H])c([H])c2OC([H])([H])C1([H])[H]


 29 32  0  0  0  0  0  0  0  0999 V2000
  -87.5895   31.6934   -2.7453 C   0  0  0  0  0  0  0  0  0  0  0  0
  -88.2343   32.4678   -3.8839 C   0  0  0  0  0  0  0  0  0  0  0  0
  -89.6649   32.7663   -3.5574 C   0  0  0  0  0  0  0  0  0  0  0  0
  -90.3463   31.6176   -3.1522 O   0  0  0  0  0  0  0  0  0  0  0  0
  -89.6984   30.4286   -2.8169 C   0  0  0  0  0  0  0  0  0  0  0  0
  -90.4312   29.2412   -2.6934 C   0  0  0  0  0  0  0  0  0  0  0  0
  -89.8154   28.0495   -2.3623 C   0  0  0  0  0  0  0  0  0  0  0  0
  -88.4512   28.0746   -2.1582 C   0  0  0  0  0  0  0  0  0  0  0  0
  -87.7132   29.2572   -2.2800 C   0  0  0  0  0  0  0  0  0  0  0  0
  -88.3497   30.4175   -2.6079 C   0  0  0  0  0  0  0  0  0  0  0  0
  -87.7068   32.5343   -1.5035 C   0  0  0  0  0  0  0  0  0  0  0  0
  -86.9751   31.9820   -0.3660 N   0  0  0  0  0  0  0  0  0  0  0  0
  -87.5146   31.5094    0.3808 H   0  0  0  0  0  0  0  0  0  0  0  0
  -84.8085   31.2566    0.5500 C   0  0  0  0  0  0  0  0  0  0  0  0
  -83.4229   31.5227    0.6350 C   0  0  0  0  0  0  0  0  0  0  0  0
  -82.8399   32.5613   -0.0281 C   0  0  0  0  0  0  0  0  0  0  0  0
  -83.5980   33.3540   -0.7817 N   0  0  0  0  0  0  0  0  0  0  0  0
  -84.9147   33.1490   -0.8973 C   0  0  0  0  0  0  0  0  0  0  0  0
  -85.5622   32.0954   -0.2361 C   0  0  0  0  0  0  0  0  0  0  0  0
  -86.2664   29.3973    0.8808 O   0  0  0  0  0  0  0  0  0  0  0  0
  -85.3476   30.1233    1.2474 C   0  0  0  0  0  0  0  0  0  0  0  0
  -84.7799   29.7818    2.4935 O   0  0  0  0  0  0  0  0  0  0  0  0
  -85.2884   29.8830    3.3558 H   0  0  0  0  0  0  0  0  0  0  0  0
  -90.8124   26.5923   -2.2258 S   0  0  0  0  0  0  0  0  0  0  0  0
  -92.2770   26.7063   -3.2755 C   0  0  0  0  0  0  0  0  0  0  0  0
  -92.3205   26.6572   -4.6466 C   0  0  0  0  0  0  0  0  0  0  0  0
  -93.5337   26.7633   -5.2215 C   0  0  0  0  0  0  0  0  0  0  0  0
  -94.6123   26.9103   -4.3879 C   0  0  0  0  0  0  0  0  0  0  0  0
  -93.9080   26.8963   -2.8401 S   0  0  0  0  0  0  0  0  0  0  0  0
 20 21  2  0  0  0
 21 22  1  0  0  0
 21 14  1  0  0  0
 14 15  2  0  0  0
 15 16  1  0  0  0
 16 17  2  0  0  0
 17 18  1  0  0  0
 18 19  2  0  0  0
 19 12  1  0  0  0
 12 11  1  0  0  0
 11  1  1  0  0  0
  1  2  1  0  0  0
  2  3  1  0  0  0
  3  4  1  0  0  0
  4  5  1  0  0  0
  5  6  2  0  0  0
  6  7  1  0  0  0
  7 24  1  0  0  0
 24 25  1  0  0  0
 25 26  2  0  0  0
 26 27  1  0  0  0
 27 28  2  0  0  0
 28 29  1  0  0  0
  7  8  2  0  0  0
  8  9  1  0  0  0
  9 10  2  0  0  0
 19 14  1  0  0  0
 10  1  1  0  0  0
 10  5  1  0  0  0
 29 25  1  0  0  0
 22 23  1  0  0  0
 12 13  1  0  0  0
M  END
> <minimizedAffinity>
-7.17542

> <CNNscore>
0.2128914893

> <CNNaffinity>
6.0382909775

> <CNN_VS>
1.2855007648

> <CNNaffinity_variance>
0.2068371773

$$$$
[H]N=c1c(C(=O)N([H])C([H])([H])c2oc([H])c([H])c2[H])c([H])c2c(=O)n3c([H])c([H])c([H])c([H])c3nc2n1C([H])([H])c1c([H])c([H])c(C([H])([H])[H])c([H])c1[H]


 35 39  0  0  0  0  0  0  0  0999 V2000
  -88.2478   32.2396   -0.9887 N   0  0  0  0  0  0  0  0  0  0  0  0
  -88.4553   33.2103   -1.9188 C   0  0  0  0  0  0  0  0  0  0  0  0
  -89.6311   33.3429   -2.3284 N   0  0  0  0  0  0  0  0  0  0  0  0
  -87.4588   33.9824   -2.4570 C   0  0  0  0  0  0  0  0  0  0  0  0
  -86.1582   33.7310   -2.0075 C   0  0  0  0  0  0  0  0  0  0  0  0
  -85.9122   32.7699   -1.0830 C   0  0  0  0  0  0  0  0  0  0  0  0
  -84.6266   32.5294   -0.6679 C   0  0  0  0  0  0  0  0  0  0  0  0
  -83.6583   33.1927   -1.1125 O   0  0  0  0  0  0  0  0  0  0  0  0
  -84.3792   31.5663    0.2344 N   0  0  0  0  0  0  0  0  0  0  0  0
  -83.1213   31.3184    0.6518 C   0  0  0  0  0  0  0  0  0  0  0  0
  -82.8187   30.3538    1.5640 C   0  0  0  0  0  0  0  0  0  0  0  0
  -83.8477   29.5829    2.0958 C   0  0  0  0  0  0  0  0  0  0  0  0
  -85.1173   29.8618    1.6488 C   0  0  0  0  0  0  0  0  0  0  0  0
  -85.4048   30.8425    0.7246 C   0  0  0  0  0  0  0  0  0  0  0  0
  -86.6543   31.0935    0.3068 N   0  0  0  0  0  0  0  0  0  0  0  0
  -86.9810   32.0411   -0.5926 C   0  0  0  0  0  0  0  0  0  0  0  0
  -90.0742   33.9410   -2.9815 H   0  0  0  0  0  0  0  0  0  0  0  0
  -87.6011   35.0911   -3.3645 C   0  0  0  0  0  0  0  0  0  0  0  0
  -88.6422   35.8351   -3.1491 O   0  0  0  0  0  0  0  0  0  0  0  0
  -86.7605   35.4421   -4.4356 N   0  0  0  0  0  0  0  0  0  0  0  0
  -85.9455   34.8581   -4.6663 H   0  0  0  0  0  0  0  0  0  0  0  0
  -87.0240   36.6070   -5.2726 C   0  0  0  0  0  0  0  0  0  0  0  0
  -86.3191   37.8047   -4.7948 C   0  0  0  0  0  0  0  0  0  0  0  0
  -86.8034   38.7730   -3.9578 C   0  0  0  0  0  0  0  0  0  0  0  0
  -85.7869   39.7221   -3.7752 C   0  0  0  0  0  0  0  0  0  0  0  0
  -84.7392   39.2541   -4.5276 C   0  0  0  0  0  0  0  0  0  0  0  0
  -85.0901   38.1429   -5.1006 O   0  0  0  0  0  0  0  0  0  0  0  0
  -89.3244   31.4359   -0.4867 C   0  0  0  0  0  0  0  0  0  0  0  0
  -89.5443   25.7751   -1.7444 C   0  0  0  0  0  0  0  0  0  0  0  0
  -89.4630   27.2400   -1.4865 C   0  0  0  0  0  0  0  0  0  0  0  0
  -89.1850   28.1615   -2.4408 C   0  0  0  0  0  0  0  0  0  0  0  0
  -89.1256   29.5331   -2.1304 C   0  0  0  0  0  0  0  0  0  0  0  0
  -89.3412   30.0128   -0.8679 C   0  0  0  0  0  0  0  0  0  0  0  0
  -89.6265   29.0337    0.0932 C   0  0  0  0  0  0  0  0  0  0  0  0
  -89.6860   27.6791   -0.2072 C   0  0  0  0  0  0  0  0  0  0  0  0
 29 30  1  0  0  0
 30 31  2  0  0  0
 31 32  1  0  0  0
 32 33  2  0  0  0
 33 28  1  0  0  0
 28  1  1  0  0  0
  1  2  1  0  0  0
  2  3  2  0  0  0
  2  4  1  0  0  0
  4 18  1  0  0  0
 18 19  2  0  0  0
 18 20  1  0  0  0
 20 22  1  0  0  0
 22 23  1  0  0  0
 23 24  2  0  0  0
 24 25  1  0  0  0
 25 26  2  0  0  0
 26 27  1  0  0  0
  4  5  2  0  0  0
  5  6  1  0  0  0
  6  7  1  0  0  0
  7  8  2  0  0  0
  7  9  1  0  0  0
  9 10  1  0  0  0
 10 11  2  0  0  0
 11 12  1  0  0  0
 12 13  2  0  0  0
 13 14  1  0  0  0
 14 15  2  0  0  0
 15 16  1  0  0  0
 33 34  1  0  0  0
 34 35  2  0  0  0
 35 30  1  0  0  0
 16  1  1  0  0  0
 27 23  1  0  0  0
 16  6  2  0  0  0
 14  9  1  0  0  0
  3 17  1  0  0  0
 20 21  1  0  0  0
M  END
> <minimizedAffinity>
-10.26771

> <CNNscore>
0.7892716527

> <CNNaffinity>
7.0856513977

> <CNN_VS>
5.5925040245

> <CNNaffinity_variance>
0.2012248486

$$$$
[H]N=c1c(C(=O)N([H])C([H])([H])c2oc([H])c([H])c2[H])c([H])c2c(=O)n3c([H])c([H])c([H])c([H])c3nc2n1C([H])([H])c1c([H])c([H])c(C([H])([H])[H])c([H])c1[H]


 35 39  0  0  0  0  0  0  0  0999 V2000
  -88.1723   32.2823   -0.9604 N   0  0  0  0  0  0  0  0  0  0  0  0
  -88.3481   33.2662   -1.8832 C   0  0  0  0  0  0  0  0  0  0  0  0
  -89.5179   33.4356   -2.2965 N   0  0  0  0  0  0  0  0  0  0  0  0
  -87.3277   34.0139   -2.4110 C   0  0  0  0  0  0  0  0  0  0  0  0
  -86.0367   33.7218   -1.9583 C   0  0  0  0  0  0  0  0  0  0  0  0
  -85.8222   32.7465   -1.0410 C   0  0  0  0  0  0  0  0  0  0  0  0
  -84.5457   32.4661   -0.6227 C   0  0  0  0  0  0  0  0  0  0  0  0
  -83.5570   33.1051   -1.0579 O   0  0  0  0  0  0  0  0  0  0  0  0
  -84.3297   31.4889    0.2725 N   0  0  0  0  0  0  0  0  0  0  0  0
  -83.0811   31.2018    0.6929 C   0  0  0  0  0  0  0  0  0  0  0  0
  -82.8101   30.2215    1.5982 C   0  0  0  0  0  0  0  0  0  0  0  0
  -83.8628   29.4759    2.1194 C   0  0  0  0  0  0  0  0  0  0  0  0
  -85.1221   29.7946    1.6696 C   0  0  0  0  0  0  0  0  0  0  0  0
  -85.3776   30.7906    0.7525 C   0  0  0  0  0  0  0  0  0  0  0  0
  -86.6177   31.0806    0.3318 N   0  0  0  0  0  0  0  0  0  0  0  0
  -86.9134   32.0445   -0.5609 C   0  0  0  0  0  0  0  0  0  0  0  0
  -89.9410   34.0514   -2.9463 H   0  0  0  0  0  0  0  0  0  0  0  0
  -87.4345   35.1337   -3.3098 C   0  0  0  0  0  0  0  0  0  0  0  0
  -88.1266   36.1307   -2.8505 O   0  0  0  0  0  0  0  0  0  0  0  0
  -86.8909   35.2584   -4.6005 N   0  0  0  0  0  0  0  0  0  0  0  0
  -86.3681   34.4774   -5.0191 H   0  0  0  0  0  0  0  0  0  0  0  0
  -87.0727   36.4641   -5.4004 C   0  0  0  0  0  0  0  0  0  0  0  0
  -88.2181   36.3562   -6.3147 C   0  0  0  0  0  0  0  0  0  0  0  0
  -88.5265   37.1853   -7.3588 C   0  0  0  0  0  0  0  0  0  0  0  0
  -89.7026   36.7017   -7.9507 C   0  0  0  0  0  0  0  0  0  0  0  0
  -90.0303   35.5936   -7.2107 C   0  0  0  0  0  0  0  0  0  0  0  0
  -89.1452   35.4303   -6.2746 O   0  0  0  0  0  0  0  0  0  0  0  0
  -89.2735   31.5055   -0.4695 C   0  0  0  0  0  0  0  0  0  0  0  0
  -89.6733   25.8751   -1.8158 C   0  0  0  0  0  0  0  0  0  0  0  0
  -89.5464   27.3325   -1.5353 C   0  0  0  0  0  0  0  0  0  0  0  0
  -89.2544   28.2614   -2.4782 C   0  0  0  0  0  0  0  0  0  0  0  0
  -89.1514   29.6254   -2.1464 C   0  0  0  0  0  0  0  0  0  0  0  0
  -89.3364   30.0901   -0.8735 C   0  0  0  0  0  0  0  0  0  0  0  0
  -89.6373   29.1037    0.0754 C   0  0  0  0  0  0  0  0  0  0  0  0
  -89.7398   27.7566   -0.2461 C   0  0  0  0  0  0  0  0  0  0  0  0
 29 30  1  0  0  0
 30 31  2  0  0  0
 31 32  1  0  0  0
 32 33  2  0  0  0
 33 28  1  0  0  0
 28  1  1  0  0  0
  1  2  1  0  0  0
  2  3  2  0  0  0
  2  4  1  0  0  0
  4 18  1  0  0  0
 18 19  2  0  0  0
 18 20  1  0  0  0
 20 22  1  0  0  0
 22 23  1  0  0  0
 23 24  2  0  0  0
 24 25  1  0  0  0
 25 26  2  0  0  0
 26 27  1  0  0  0
  4  5  2  0  0  0
  5  6  1  0  0  0
  6  7  1  0  0  0
  7  8  2  0  0  0
  7  9  1  0  0  0
  9 10  1  0  0  0
 10 11  2  0  0  0
 11 12  1  0  0  0
 12 13  2  0  0  0
 13 14  1  0  0  0
 14 15  2  0  0  0
 15 16  1  0  0  0
 33 34  1  0  0  0
 34 35  2  0  0  0
 35 30  1  0  0  0
 16  1  1  0  0  0
 27 23  1  0  0  0
 16  6  2  0  0  0
 14  9  1  0  0  0
  3 17  1  0  0  0
 20 21  1  0  0  0
M  END
> <minimizedAffinity>
-10.08027

> <CNNscore>
0.5733138323

> <CNNaffinity>
6.8758955002

> <CNN_VS>
3.9420459270

> <CNNaffinity_variance>
0.2426709682

$$$$
[H]N=c1c(C(=O)N([H])C([H])([H])c2oc([H])c([H])c2[H])c([H])c2c(=O)n3c([H])c([H])c([H])c([H])c3nc2n1C([H])([H])c1c([H])c([H])c(C([H])([H])[H])c([H])c1[H]


 35 39  0  0  0  0  0  0  0  0999 V2000
  -88.4699   30.5766   -1.4978 N   0  0  0  0  0  0  0  0  0  0  0  0
  -89.1117   31.5378   -2.2151 C   0  0  0  0  0  0  0  0  0  0  0  0
  -90.1728   31.1905   -2.7819 N   0  0  0  0  0  0  0  0  0  0  0  0
  -88.6335   32.8102   -2.3922 C   0  0  0  0  0  0  0  0  0  0  0  0
  -87.4059   33.1084   -1.7916 C   0  0  0  0  0  0  0  0  0  0  0  0
  -86.7359   32.1753   -1.0710 C   0  0  0  0  0  0  0  0  0  0  0  0
  -85.5254   32.4847   -0.5036 C   0  0  0  0  0  0  0  0  0  0  0  0
  -85.0191   33.6273   -0.6194 O   0  0  0  0  0  0  0  0  0  0  0  0
  -84.8523   31.5567    0.1954 N   0  0  0  0  0  0  0  0  0  0  0  0
  -83.6618   31.8460    0.7586 C   0  0  0  0  0  0  0  0  0  0  0  0
  -82.9410   30.9408    1.4764 C   0  0  0  0  0  0  0  0  0  0  0  0
  -83.4473   29.6555    1.6420 C   0  0  0  0  0  0  0  0  0  0  0  0
  -84.6626   29.3945    1.0551 C   0  0  0  0  0  0  0  0  0  0  0  0
  -85.3783   30.3236    0.3319 C   0  0  0  0  0  0  0  0  0  0  0  0
  -86.5631   30.0411   -0.2295 N   0  0  0  0  0  0  0  0  0  0  0  0
  -87.2964   30.9169   -0.9428 C   0  0  0  0  0  0  0  0  0  0  0  0
  -90.8356   31.6519   -3.3549 H   0  0  0  0  0  0  0  0  0  0  0  0
  -89.2911   33.9114   -3.0464 C   0  0  0  0  0  0  0  0  0  0  0  0
  -88.7190   35.0629   -2.8716 O   0  0  0  0  0  0  0  0  0  0  0  0
  -90.4596   33.8770   -3.8277 N   0  0  0  0  0  0  0  0  0  0  0  0
  -90.9672   32.9919   -3.9603 H   0  0  0  0  0  0  0  0  0  0  0  0
  -91.0120   35.0788   -4.4419 C   0  0  0  0  0  0  0  0  0  0  0  0
  -90.9227   35.0440   -5.9083 C   0  0  0  0  0  0  0  0  0  0  0  0
  -91.1825   33.9808   -6.7297 C   0  0  0  0  0  0  0  0  0  0  0  0
  -90.9673   34.4030   -8.0499 C   0  0  0  0  0  0  0  0  0  0  0  0
  -90.5854   35.7158   -7.9340 C   0  0  0  0  0  0  0  0  0  0  0  0
  -90.5727   36.0457   -6.6781 O   0  0  0  0  0  0  0  0  0  0  0  0
  -88.9991   29.2490   -1.3762 C   0  0  0  0  0  0  0  0  0  0  0  0
  -90.8204   27.5723    3.8722 C   0  0  0  0  0  0  0  0  0  0  0  0
  -90.4134   28.0381    2.5171 C   0  0  0  0  0  0  0  0  0  0  0  0
  -91.0989   28.9591    1.7966 C   0  0  0  0  0  0  0  0  0  0  0  0
  -90.6577   29.3582    0.5209 C   0  0  0  0  0  0  0  0  0  0  0  0
  -89.5291   28.8498   -0.0608 C   0  0  0  0  0  0  0  0  0  0  0  0
  -88.8449   27.9013    0.7113 C   0  0  0  0  0  0  0  0  0  0  0  0
  -89.2757   27.5036    1.9703 C   0  0  0  0  0  0  0  0  0  0  0  0
 29 30  1  0  0  0
 30 31  2  0  0  0
 31 32  1  0  0  0
 32 33  2  0  0  0
 33 28  1  0  0  0
 28  1  1  0  0  0
  1  2  1  0  0  0
  2  3  2  0  0  0
  2  4  1  0  0  0
  4 18  1  0  0  0
 18 19  2  0  0  0
 18 20  1  0  0  0
 20 22  1  0  0  0
 22 23  1  0  0  0
 23 24  2  0  0  0
 24 25  1  0  0  0
 25 26  2  0  0  0
 26 27  1  0  0  0
  4  5  2  0  0  0
  5  6  1  0  0  0
  6  7  1  0  0  0
  7  8  2  0  0  0
  7  9  1  0  0  0
  9 10  1  0  0  0
 10 11  2  0  0  0
 11 12  1  0  0  0
 12 13  2  0  0  0
 13 14  1  0  0  0
 14 15  2  0  0  0
 15 16  1  0  0  0
 33 34  1  0  0  0
 34 35  2  0  0  0
 35 30  1  0  0  0
 16  1  1  0  0  0
 27 23  1  0  0  0
 16  6  2  0  0  0
 14  9  1  0  0  0
  3 17  1  0  0  0
 20 21  1  0  0  0
M  END
> <minimizedAffinity>
-9.69979

> <CNNscore>
0.5644288659

> <CNNaffinity>
6.9194517136

> <CNN_VS>
3.9055383205

> <CNNaffinity_variance>
0.0843690038

$$$$
[H]N=c1c(C(=O)N([H])C([H])([H])c2oc([H])c([H])c2[H])c([H])c2c(=O)n3c([H])c([H])c([H])c([H])c3nc2n1C([H])([H])c1c([H])c([H])c(C([H])([H])[H])c([H])c1[H]


 35 39  0  0  0  0  0  0  0  0999 V2000
  -88.3639   30.0993   -1.2992 N   0  0  0  0  0  0  0  0  0  0  0  0
  -89.0407   30.9925   -2.0703 C   0  0  0  0  0  0  0  0  0  0  0  0
  -90.0991   30.5797   -2.5968 N   0  0  0  0  0  0  0  0  0  0  0  0
  -88.5996   32.2619   -2.3400 C   0  0  0  0  0  0  0  0  0  0  0  0
  -87.3729   32.6323   -1.7788 C   0  0  0  0  0  0  0  0  0  0  0  0
  -86.6686   31.7682   -1.0067 C   0  0  0  0  0  0  0  0  0  0  0  0
  -85.4598   32.1471   -0.4793 C   0  0  0  0  0  0  0  0  0  0  0  0
  -84.9862   33.2921   -0.6793 O   0  0  0  0  0  0  0  0  0  0  0  0
  -84.7529   31.2867    0.2710 N   0  0  0  0  0  0  0  0  0  0  0  0
  -83.5636   31.6446    0.7959 C   0  0  0  0  0  0  0  0  0  0  0  0
  -82.8094   30.8095    1.5626 C   0  0  0  0  0  0  0  0  0  0  0  0
  -83.2785   29.5255    1.8221 C   0  0  0  0  0  0  0  0  0  0  0  0
  -84.4937   29.1935    1.2719 C   0  0  0  0  0  0  0  0  0  0  0  0
  -85.2435   30.0523    0.4981 C   0  0  0  0  0  0  0  0  0  0  0  0
  -86.4273   29.7013   -0.0256 N   0  0  0  0  0  0  0  0  0  0  0  0
  -87.1931   30.5072   -0.7856 C   0  0  0  0  0  0  0  0  0  0  0  0
  -90.7815   30.9836   -3.1900 H   0  0  0  0  0  0  0  0  0  0  0  0
  -89.2951   33.2986   -3.0574 C   0  0  0  0  0  0  0  0  0  0  0  0
  -89.2968   34.4549   -2.4686 O   0  0  0  0  0  0  0  0  0  0  0  0
  -89.9617   33.1952   -4.2911 N   0  0  0  0  0  0  0  0  0  0  0  0
  -90.0183   32.2885   -4.7739 H   0  0  0  0  0  0  0  0  0  0  0  0
  -90.6204   34.3399   -4.9097 C   0  0  0  0  0  0  0  0  0  0  0  0
  -89.6650   35.2401   -5.5700 C   0  0  0  0  0  0  0  0  0  0  0  0
  -89.9333   36.4451   -6.1605 C   0  0  0  0  0  0  0  0  0  0  0  0
  -88.7239   36.9511   -6.6593 C   0  0  0  0  0  0  0  0  0  0  0  0
  -87.7908   36.0004   -6.3302 C   0  0  0  0  0  0  0  0  0  0  0  0
  -88.3781   35.0278   -5.7013 O   0  0  0  0  0  0  0  0  0  0  0  0
  -88.8554   28.7696   -1.0805 C   0  0  0  0  0  0  0  0  0  0  0  0
  -90.7896   27.4779    4.2359 C   0  0  0  0  0  0  0  0  0  0  0  0
  -90.3542   27.8425    2.8589 C   0  0  0  0  0  0  0  0  0  0  0  0
  -91.0404   28.6829    2.0464 C   0  0  0  0  0  0  0  0  0  0  0  0
  -90.5716   28.9883    0.7548 C   0  0  0  0  0  0  0  0  0  0  0  0
  -89.4141   28.4648    0.2482 C   0  0  0  0  0  0  0  0  0  0  0  0
  -88.7299   27.6013    1.1143 C   0  0  0  0  0  0  0  0  0  0  0  0
  -89.1879   27.2960    2.3893 C   0  0  0  0  0  0  0  0  0  0  0  0
 29 30  1  0  0  0
 30 31  2  0  0  0
 31 32  1  0  0  0
 32 33  2  0  0  0
 33 28  1  0  0  0
 28  1  1  0  0  0
  1  2  1  0  0  0
  2  3  2  0  0  0
  2  4  1  0  0  0
  4 18  1  0  0  0
 18 19  2  0  0  0
 18 20  1  0  0  0
 20 22  1  0  0  0
 22 23  1  0  0  0
 23 24  2  0  0  0
 24 25  1  0  0  0
 25 26  2  0  0  0
 26 27  1  0  0  0
  4  5  2  0  0  0
  5  6  1  0  0  0
  6  7  1  0  0  0
  7  8  2  0  0  0
  7  9  1  0  0  0
  9 10  1  0  0  0
 10 11  2  0  0  0
 11 12  1  0  0  0
 12 13  2  0  0  0
 13 14  1  0  0  0
 14 15  2  0  0  0
 15 16  1  0  0  0
 33 34  1  0  0  0
 34 35  2  0  0  0
 35 30  1  0  0  0
 16  1  1  0  0  0
 27 23  1  0  0  0
 16  6  2  0  0  0
 14  9  1  0  0  0
  3 17  1  0  0  0
 20 21  1  0  0  0
M  END
> <minimizedAffinity>
-9.34522

> <CNNscore>
0.4221583009

> <CNNaffinity>
6.8991155624

> <CNN_VS>
2.9125189781

> <CNNaffinity_variance>
0.1124986187

$$$$
[H]N=c1c(C(=O)N([H])C([H])([H])c2oc([H])c([H])c2[H])c([H])c2c(=O)n3c([H])c([H])c([H])c([H])c3nc2n1C([H])([H])c1c([H])c([H])c(C([H])([H])[H])c([H])c1[H]


 35 39  0  0  0  0  0  0  0  0999 V2000
  -88.0269   28.4312   -0.0410 N   0  0  0  0  0  0  0  0  0  0  0  0
  -88.7799   27.6439    0.7735 C   0  0  0  0  0  0  0  0  0  0  0  0
  -89.8949   27.2906    0.3265 N   0  0  0  0  0  0  0  0  0  0  0  0
  -88.4137   27.2831    2.0441 C   0  0  0  0  0  0  0  0  0  0  0  0
  -87.1881   27.7735    2.5070 C   0  0  0  0  0  0  0  0  0  0  0  0
  -86.4114   28.5630    1.7247 C   0  0  0  0  0  0  0  0  0  0  0  0
  -85.2200   29.0459    2.2047 C   0  0  0  0  0  0  0  0  0  0  0  0
  -84.8134   28.7619    3.3577 O   0  0  0  0  0  0  0  0  0  0  0  0
  -84.4580   29.8421    1.4378 N   0  0  0  0  0  0  0  0  0  0  0  0
  -83.2850   30.3244    1.8958 C   0  0  0  0  0  0  0  0  0  0  0  0
  -82.4769   31.1345    1.1577 C   0  0  0  0  0  0  0  0  0  0  0  0
  -82.8705   31.4870   -0.1294 C   0  0  0  0  0  0  0  0  0  0  0  0
  -84.0711   30.9782   -0.5647 C   0  0  0  0  0  0  0  0  0  0  0  0
  -84.8761   30.1592    0.1966 C   0  0  0  0  0  0  0  0  0  0  0  0
  -86.0432   29.6764   -0.2546 N   0  0  0  0  0  0  0  0  0  0  0  0
  -86.8602   28.8734    0.4533 C   0  0  0  0  0  0  0  0  0  0  0  0
  -90.6387   26.7384    0.6765 H   0  0  0  0  0  0  0  0  0  0  0  0
  -89.0977   26.3780    2.9307 C   0  0  0  0  0  0  0  0  0  0  0  0
  -89.6193   26.9391    3.9781 O   0  0  0  0  0  0  0  0  0  0  0  0
  -89.2517   24.9872    2.7926 N   0  0  0  0  0  0  0  0  0  0  0  0
  -88.8214   24.4957    1.9977 H   0  0  0  0  0  0  0  0  0  0  0  0
  -89.9836   24.1916    3.7714 C   0  0  0  0  0  0  0  0  0  0  0  0
  -89.0876   23.3915    4.6179 C   0  0  0  0  0  0  0  0  0  0  0  0
  -88.2213   23.8496    5.5732 C   0  0  0  0  0  0  0  0  0  0  0  0
  -87.5729   22.7355    6.1261 C   0  0  0  0  0  0  0  0  0  0  0  0
  -88.1011   21.6612    5.4554 C   0  0  0  0  0  0  0  0  0  0  0  0
  -88.9731   22.0859    4.5920 O   0  0  0  0  0  0  0  0  0  0  0  0
  -88.4770   28.8081   -1.3497 C   0  0  0  0  0  0  0  0  0  0  0  0
  -89.0080   34.4208   -2.7243 C   0  0  0  0  0  0  0  0  0  0  0  0
  -88.8955   32.9953   -2.3068 C   0  0  0  0  0  0  0  0  0  0  0  0
  -89.3703   32.5114   -1.1331 C   0  0  0  0  0  0  0  0  0  0  0  0
  -89.2334   31.1507   -0.8002 C   0  0  0  0  0  0  0  0  0  0  0  0
  -88.6230   30.2478   -1.6265 C   0  0  0  0  0  0  0  0  0  0  0  0
  -88.1449   30.7813   -2.8309 C   0  0  0  0  0  0  0  0  0  0  0  0
  -88.2768   32.1230   -3.1644 C   0  0  0  0  0  0  0  0  0  0  0  0
 29 30  1  0  0  0
 30 31  2  0  0  0
 31 32  1  0  0  0
 32 33  2  0  0  0
 33 28  1  0  0  0
 28  1  1  0  0  0
  1  2  1  0  0  0
  2  3  2  0  0  0
  2  4  1  0  0  0
  4 18  1  0  0  0
 18 19  2  0  0  0
 18 20  1  0  0  0
 20 22  1  0  0  0
 22 23  1  0  0  0
 23 24  2  0  0  0
 24 25  1  0  0  0
 25 26  2  0  0  0
 26 27  1  0  0  0
  4  5  2  0  0  0
  5  6  1  0  0  0
  6  7  1  0  0  0
  7  8  2  0  0  0
  7  9  1  0  0  0
  9 10  1  0  0  0
 10 11  2  0  0  0
 11 12  1  0  0  0
 12 13  2  0  0  0
 13 14  1  0  0  0
 14 15  2  0  0  0
 15 16  1  0  0  0
 33 34  1  0  0  0
 34 35  2  0  0  0
 35 30  1  0  0  0
 16  1  1  0  0  0
 27 23  1  0  0  0
 16  6  2  0  0  0
 14  9  1  0  0  0
  3 17  1  0  0  0
 20 21  1  0  0  0
M  END
> <minimizedAffinity>
-9.65403

> <CNNscore>
0.2057910562

> <CNNaffinity>
6.5291275978

> <CNN_VS>
1.3436360359

> <CNNaffinity_variance>
0.3734627366

$$$$
[H]N=c1c(C(=O)N([H])C([H])([H])c2oc([H])c([H])c2[H])c([H])c2c(=O)n3c([H])c([H])c([H])c([H])c3nc2n1C([H])([H])c1c([H])c([H])c(C([H])([H])[H])c([H])c1[H]


 35 39  0  0  0  0  0  0  0  0999 V2000
  -88.6078   28.7317   -1.1234 N   0  0  0  0  0  0  0  0  0  0  0  0
  -89.4688   29.1902   -2.0716 C   0  0  0  0  0  0  0  0  0  0  0  0
  -90.3411   28.3826   -2.4650 N   0  0  0  0  0  0  0  0  0  0  0  0
  -89.3889   30.4335   -2.6431 C   0  0  0  0  0  0  0  0  0  0  0  0
  -88.3452   31.2576   -2.2092 C   0  0  0  0  0  0  0  0  0  0  0  0
  -87.4662   30.8342   -1.2675 C   0  0  0  0  0  0  0  0  0  0  0  0
  -86.4403   31.6533   -0.8680 C   0  0  0  0  0  0  0  0  0  0  0  0
  -86.2979   32.8063   -1.3430 O   0  0  0  0  0  0  0  0  0  0  0  0
  -85.5587   31.2290    0.0515 N   0  0  0  0  0  0  0  0  0  0  0  0
  -84.5455   32.0226    0.4539 C   0  0  0  0  0  0  0  0  0  0  0  0
  -83.6264   31.6390    1.3825 C   0  0  0  0  0  0  0  0  0  0  0  0
  -83.7285   30.3719    1.9481 C   0  0  0  0  0  0  0  0  0  0  0  0
  -84.7725   29.5892    1.5156 C   0  0  0  0  0  0  0  0  0  0  0  0
  -85.6936   29.9944    0.5744 C   0  0  0  0  0  0  0  0  0  0  0  0
  -86.7036   29.2092    0.1714 N   0  0  0  0  0  0  0  0  0  0  0  0
  -87.6258   29.5637   -0.7436 C   0  0  0  0  0  0  0  0  0  0  0  0
  -91.0789   28.4259   -3.1240 H   0  0  0  0  0  0  0  0  0  0  0  0
  -90.3108   31.0326   -3.5728 C   0  0  0  0  0  0  0  0  0  0  0  0
  -90.5642   30.3123   -4.6220 O   0  0  0  0  0  0  0  0  0  0  0  0
  -90.9442   32.2840   -3.4738 N   0  0  0  0  0  0  0  0  0  0  0  0
  -90.7424   32.9042   -2.6781 H   0  0  0  0  0  0  0  0  0  0  0  0
  -91.8692   32.7628   -4.4945 C   0  0  0  0  0  0  0  0  0  0  0  0
  -91.2189   33.6674   -5.4527 C   0  0  0  0  0  0  0  0  0  0  0  0
  -91.5757   33.8917   -6.7546 C   0  0  0  0  0  0  0  0  0  0  0  0
  -90.6767   34.8287   -7.2848 C   0  0  0  0  0  0  0  0  0  0  0  0
  -89.8229   35.1117   -6.2487 C   0  0  0  0  0  0  0  0  0  0  0  0
  -90.1725   34.4181   -5.2080 O   0  0  0  0  0  0  0  0  0  0  0  0
  -88.7164   27.4062   -0.5861 C   0  0  0  0  0  0  0  0  0  0  0  0
  -90.2840   26.7812    4.9660 C   0  0  0  0  0  0  0  0  0  0  0  0
  -89.9397   26.9803    3.5305 C   0  0  0  0  0  0  0  0  0  0  0  0
  -90.6042   27.8240    2.7035 C   0  0  0  0  0  0  0  0  0  0  0  0
  -90.2253   27.9677    1.3555 C   0  0  0  0  0  0  0  0  0  0  0  0
  -89.1809   27.2764    0.8060 C   0  0  0  0  0  0  0  0  0  0  0  0
  -88.5161   26.4144    1.6885 C   0  0  0  0  0  0  0  0  0  0  0  0
  -88.8858   26.2683    3.0192 C   0  0  0  0  0  0  0  0  0  0  0  0
 29 30  1  0  0  0
 30 31  2  0  0  0
 31 32  1  0  0  0
 32 33  2  0  0  0
 33 28  1  0  0  0
 28  1  1  0  0  0
  1  2  1  0  0  0
  2  3  2  0  0  0
  2  4  1  0  0  0
  4 18  1  0  0  0
 18 19  2  0  0  0
 18 20  1  0  0  0
 20 22  1  0  0  0
 22 23  1  0  0  0
 23 24  2  0  0  0
 24 25  1  0  0  0
 25 26  2  0  0  0
 26 27  1  0  0  0
  4  5  2  0  0  0
  5  6  1  0  0  0
  6  7  1  0  0  0
  7  8  2  0  0  0
  7  9  1  0  0  0
  9 10  1  0  0  0
 10 11  2  0  0  0
 11 12  1  0  0  0
 12 13  2  0  0  0
 13 14  1  0  0  0
 14 15  2  0  0  0
 15 16  1  0  0  0
 33 34  1  0  0  0
 34 35  2  0  0  0
 35 30  1  0  0  0
 16  1  1  0  0  0
 27 23  1  0  0  0
 16  6  2  0  0  0
 14  9  1  0  0  0
  3 17  1  0  0  0
 20 21  1  0  0  0
M  END
> <minimizedAffinity>
-9.22952

> <CNNscore>
0.1302460581

> <CNNaffinity>
6.5229964256

> <CNN_VS>
0.8495945930

> <CNNaffinity_variance>
0.1582632363

$$$$
[H]N=c1c(C(=O)N([H])C([H])([H])c2oc([H])c([H])c2[H])c([H])c2c(=O)n3c([H])c([H])c([H])c([H])c3nc2n1C([H])([H])c1c([H])c([H])c(C([H])([H])[H])c([H])c1[H]


 35 39  0  0  0  0  0  0  0  0999 V2000
  -88.5673   29.1587   -0.4400 N   0  0  0  0  0  0  0  0  0  0  0  0
  -89.1490   30.1095   -1.2199 C   0  0  0  0  0  0  0  0  0  0  0  0
  -90.2789   29.8314   -1.6826 N   0  0  0  0  0  0  0  0  0  0  0  0
  -88.5484   31.2928   -1.5630 C   0  0  0  0  0  0  0  0  0  0  0  0
  -87.2565   31.5065   -1.0711 C   0  0  0  0  0  0  0  0  0  0  0  0
  -86.6434   30.5807   -0.2927 C   0  0  0  0  0  0  0  0  0  0  0  0
  -85.3696   30.8041    0.1660 C   0  0  0  0  0  0  0  0  0  0  0  0
  -84.7509   31.8623   -0.1037 O   0  0  0  0  0  0  0  0  0  0  0  0
  -84.7545   29.8808    0.9223 N   0  0  0  0  0  0  0  0  0  0  0  0
  -83.5030   30.0861    1.3802 C   0  0  0  0  0  0  0  0  0  0  0  0
  -82.8368   29.1817    2.1498 C   0  0  0  0  0  0  0  0  0  0  0  0
  -83.4675   27.9875    2.4846 C   0  0  0  0  0  0  0  0  0  0  0  0
  -84.7422   27.8106    2.0015 C   0  0  0  0  0  0  0  0  0  0  0  0
  -85.4012   28.7375    1.2236 C   0  0  0  0  0  0  0  0  0  0  0  0
  -86.6462   28.5384    0.7664 N   0  0  0  0  0  0  0  0  0  0  0  0
  -87.3276   29.4157    0.0052 C   0  0  0  0  0  0  0  0  0  0  0  0
  -90.9259   30.3055   -2.2632 H   0  0  0  0  0  0  0  0  0  0  0  0
  -89.1261   32.3901   -2.2948 C   0  0  0  0  0  0  0  0  0  0  0  0
  -88.9218   33.5580   -1.7673 O   0  0  0  0  0  0  0  0  0  0  0  0
  -89.8744   32.3347   -3.4839 N   0  0  0  0  0  0  0  0  0  0  0  0
  -90.0931   31.4267   -3.9155 H   0  0  0  0  0  0  0  0  0  0  0  0
  -90.3939   33.5374   -4.1246 C   0  0  0  0  0  0  0  0  0  0  0  0
  -91.4201   33.2312   -5.1308 C   0  0  0  0  0  0  0  0  0  0  0  0
  -92.4847   32.3817   -4.9973 C   0  0  0  0  0  0  0  0  0  0  0  0
  -93.1957   32.4005   -6.2063 C   0  0  0  0  0  0  0  0  0  0  0  0
  -92.4999   33.2756   -7.0018 C   0  0  0  0  0  0  0  0  0  0  0  0
  -91.4801   33.7327   -6.3405 O   0  0  0  0  0  0  0  0  0  0  0  0
  -89.2285   27.9211   -0.1430 C   0  0  0  0  0  0  0  0  0  0  0  0
  -90.1678   26.6510    5.4408 C   0  0  0  0  0  0  0  0  0  0  0  0
  -89.9797   27.0235    4.0109 C   0  0  0  0  0  0  0  0  0  0  0  0
  -90.6171   28.0569    3.4085 C   0  0  0  0  0  0  0  0  0  0  0  0
  -90.3918   28.3576    2.0520 C   0  0  0  0  0  0  0  0  0  0  0  0
  -89.5304   27.6376    1.2709 C   0  0  0  0  0  0  0  0  0  0  0  0
  -88.8883   26.5776    1.9252 C   0  0  0  0  0  0  0  0  0  0  0  0
  -89.1070   26.2762    3.2631 C   0  0  0  0  0  0  0  0  0  0  0  0
 29 30  1  0  0  0
 30 31  2  0  0  0
 31 32  1  0  0  0
 32 33  2  0  0  0
 33 28  1  0  0  0
 28  1  1  0  0  0
  1  2  1  0  0  0
  2  3  2  0  0  0
  2  4  1  0  0  0
  4 18  1  0  0  0
 18 19  2  0  0  0
 18 20  1  0  0  0
 20 22  1  0  0  0
 22 23  1  0  0  0
 23 24  2  0  0  0
 24 25  1  0  0  0
 25 26  2  0  0  0
 26 27  1  0  0  0
  4  5  2  0  0  0
  5  6  1  0  0  0
  6  7  1  0  0  0
  7  8  2  0  0  0
  7  9  1  0  0  0
  9 10  1  0  0  0
 10 11  2  0  0  0
 11 12  1  0  0  0
 12 13  2  0  0  0
 13 14  1  0  0  0
 14 15  2  0  0  0
 15 16  1  0  0  0
 33 34  1  0  0  0
 34 35  2  0  0  0
 35 30  1  0  0  0
 16  1  1  0  0  0
 27 23  1  0  0  0
 16  6  2  0  0  0
 14  9  1  0  0  0
  3 17  1  0  0  0
 20 21  1  0  0  0
M  END
> <minimizedAffinity>
-9.60911

> <CNNscore>
0.1302262098

> <CNNaffinity>
6.4500999451

> <CNN_VS>
0.8399720788

> <CNNaffinity_variance>
0.1223344803

$$$$
[H]N=c1c(C(=O)N([H])C([H])([H])c2oc([H])c([H])c2[H])c([H])c2c(=O)n3c([H])c([H])c([H])c([H])c3nc2n1C([H])([H])c1c([H])c([H])c(C([H])([H])[H])c([H])c1[H]


 35 39  0  0  0  0  0  0  0  0999 V2000
  -88.0385   31.1810   -2.6959 N   0  0  0  0  0  0  0  0  0  0  0  0
  -88.0149   32.3742   -3.3488 C   0  0  0  0  0  0  0  0  0  0  0  0
  -88.6472   32.4277   -4.4282 N   0  0  0  0  0  0  0  0  0  0  0  0
  -87.3025   33.4661   -2.9255 C   0  0  0  0  0  0  0  0  0  0  0  0
  -86.5595   33.3133   -1.7501 C   0  0  0  0  0  0  0  0  0  0  0  0
  -86.5567   32.1383   -1.0733 C   0  0  0  0  0  0  0  0  0  0  0  0
  -85.8080   32.0057    0.0690 C   0  0  0  0  0  0  0  0  0  0  0  0
  -85.1280   32.9582    0.5225 O   0  0  0  0  0  0  0  0  0  0  0  0
  -85.7902   30.8375    0.7308 N   0  0  0  0  0  0  0  0  0  0  0  0
  -85.0593   30.6921    1.8546 C   0  0  0  0  0  0  0  0  0  0  0  0
  -85.0082   29.5292    2.5611 C   0  0  0  0  0  0  0  0  0  0  0  0
  -85.7399   28.4347    2.1111 C   0  0  0  0  0  0  0  0  0  0  0  0
  -86.4736   28.6173    0.9631 C   0  0  0  0  0  0  0  0  0  0  0  0
  -86.5134   29.8021    0.2609 C   0  0  0  0  0  0  0  0  0  0  0  0
  -87.2394   29.9520   -0.8569 N   0  0  0  0  0  0  0  0  0  0  0  0
  -87.3083   31.0901   -1.5735 C   0  0  0  0  0  0  0  0  0  0  0  0
  -88.8059   33.1337   -5.1042 H   0  0  0  0  0  0  0  0  0  0  0  0
  -87.3013   34.7880   -3.4962 C   0  0  0  0  0  0  0  0  0  0  0  0
  -87.9025   35.6865   -2.7786 O   0  0  0  0  0  0  0  0  0  0  0  0
  -86.7406   35.1990   -4.7184 N   0  0  0  0  0  0  0  0  0  0  0  0
  -86.2885   34.5123   -5.3369 H   0  0  0  0  0  0  0  0  0  0  0  0
  -86.8068   36.5842   -5.1698 C   0  0  0  0  0  0  0  0  0  0  0  0
  -87.7860   36.7698   -6.2498 C   0  0  0  0  0  0  0  0  0  0  0  0
  -87.6942   37.6250   -7.3142 C   0  0  0  0  0  0  0  0  0  0  0  0
  -88.8540   37.4657   -8.0867 C   0  0  0  0  0  0  0  0  0  0  0  0
  -89.5803   36.5081   -7.4247 C   0  0  0  0  0  0  0  0  0  0  0  0
  -88.9259   36.1332   -6.3676 O   0  0  0  0  0  0  0  0  0  0  0  0
  -88.7729   30.0591   -3.2049 C   0  0  0  0  0  0  0  0  0  0  0  0
  -94.4619   29.7352   -2.1077 C   0  0  0  0  0  0  0  0  0  0  0  0
  -92.9893   29.7982   -2.3228 C   0  0  0  0  0  0  0  0  0  0  0  0
  -92.0745   29.3551   -1.4262 C   0  0  0  0  0  0  0  0  0  0  0  0
  -90.6951   29.4418   -1.6930 C   0  0  0  0  0  0  0  0  0  0  0  0
  -90.2010   29.9697   -2.8539 C   0  0  0  0  0  0  0  0  0  0  0  0
  -91.1736   30.4171   -3.7582 C   0  0  0  0  0  0  0  0  0  0  0  0
  -92.5357   30.3345   -3.5001 C   0  0  0  0  0  0  0  0  0  0  0  0
 29 30  1  0  0  0
 30 31  2  0  0  0
 31 32  1  0  0  0
 32 33  2  0  0  0
 33 28  1  0  0  0
 28  1  1  0  0  0
  1  2  1  0  0  0
  2  3  2  0  0  0
  2  4  1  0  0  0
  4 18  1  0  0  0
 18 19  2  0  0  0
 18 20  1  0  0  0
 20 22  1  0  0  0
 22 23  1  0  0  0
 23 24  2  0  0  0
 24 25  1  0  0  0
 25 26  2  0  0  0
 26 27  1  0  0  0
  4  5  2  0  0  0
  5  6  1  0  0  0
  6  7  1  0  0  0
  7  8  2  0  0  0
  7  9  1  0  0  0
  9 10  1  0  0  0
 10 11  2  0  0  0
 11 12  1  0  0  0
 12 13  2  0  0  0
 13 14  1  0  0  0
 14 15  2  0  0  0
 15 16  1  0  0  0
 33 34  1  0  0  0
 34 35  2  0  0  0
 35 30  1  0  0  0
 16  1  1  0  0  0
 27 23  1  0  0  0
 16  6  2  0  0  0
 14  9  1  0  0  0
  3 17  1  0  0  0
 20 21  1  0  0  0
M  END
> <minimizedAffinity>
-8.25945

> <CNNscore>
0.1265438199

> <CNNaffinity>
6.2689638138

> <CNN_VS>
0.7932986021

> <CNNaffinity_variance>
0.1545812190

$$$$
[H]N=c1c(C(=O)N([H])C([H])([H])c2oc([H])c([H])c2[H])c([H])c2c(=O)n3c([H])c([H])c([H])c([H])c3nc2n1C([H])([H])c1c([H])c([H])c(C([H])([H])[H])c([H])c1[H]


 35 39  0  0  0  0  0  0  0  0999 V2000
  -88.5560   28.8988   -0.7673 N   0  0  0  0  0  0  0  0  0  0  0  0
  -89.5348   29.4385   -1.5426 C   0  0  0  0  0  0  0  0  0  0  0  0
  -90.4761   28.6753   -1.8578 N   0  0  0  0  0  0  0  0  0  0  0  0
  -89.5077   30.7190   -2.0311 C   0  0  0  0  0  0  0  0  0  0  0  0
  -88.3905   31.4932   -1.7002 C   0  0  0  0  0  0  0  0  0  0  0  0
  -87.3939   30.9886   -0.9315 C   0  0  0  0  0  0  0  0  0  0  0  0
  -86.2996   31.7606   -0.6323 C   0  0  0  0  0  0  0  0  0  0  0  0
  -86.1988   32.9430   -1.0412 O   0  0  0  0  0  0  0  0  0  0  0  0
  -85.3037   31.2568    0.1141 N   0  0  0  0  0  0  0  0  0  0  0  0
  -84.2221   32.0033    0.4163 C   0  0  0  0  0  0  0  0  0  0  0  0
  -83.1868   31.5388    1.1689 C   0  0  0  0  0  0  0  0  0  0  0  0
  -83.2374   30.2354    1.6531 C   0  0  0  0  0  0  0  0  0  0  0  0
  -84.3535   29.5025    1.3266 C   0  0  0  0  0  0  0  0  0  0  0  0
  -85.3922   29.9894    0.5633 C   0  0  0  0  0  0  0  0  0  0  0  0
  -86.4704   29.2512    0.2607 N   0  0  0  0  0  0  0  0  0  0  0  0
  -87.5076   29.6858   -0.4800 C   0  0  0  0  0  0  0  0  0  0  0  0
  -91.3014   28.7780   -2.3953 H   0  0  0  0  0  0  0  0  0  0  0  0
  -90.5404   31.3985   -2.7693 C   0  0  0  0  0  0  0  0  0  0  0  0
  -90.1797   32.5351   -3.2808 O   0  0  0  0  0  0  0  0  0  0  0  0
  -91.8650   30.9788   -2.9844 N   0  0  0  0  0  0  0  0  0  0  0  0
  -92.2046   30.1030   -2.5647 H   0  0  0  0  0  0  0  0  0  0  0  0
  -92.8072   31.7707   -3.7668 C   0  0  0  0  0  0  0  0  0  0  0  0
  -93.4831   30.9705   -4.7974 C   0  0  0  0  0  0  0  0  0  0  0  0
  -94.6253   31.2912   -5.4794 C   0  0  0  0  0  0  0  0  0  0  0  0
  -94.9021   30.2365   -6.3617 C   0  0  0  0  0  0  0  0  0  0  0  0
  -93.8902   29.3345   -6.1488 C   0  0  0  0  0  0  0  0  0  0  0  0
  -93.0918   29.7987   -5.2359 O   0  0  0  0  0  0  0  0  0  0  0  0
  -88.6187   27.5394   -0.3141 C   0  0  0  0  0  0  0  0  0  0  0  0
  -90.0925   26.4898    5.1995 C   0  0  0  0  0  0  0  0  0  0  0  0
  -89.7694   26.8030    3.7796 C   0  0  0  0  0  0  0  0  0  0  0  0
  -90.3869   27.7710    3.0593 C   0  0  0  0  0  0  0  0  0  0  0  0
  -90.0314   28.0179    1.7199 C   0  0  0  0  0  0  0  0  0  0  0  0
  -89.0574   27.3083    1.0733 C   0  0  0  0  0  0  0  0  0  0  0  0
  -88.4396   26.3165    1.8470 C   0  0  0  0  0  0  0  0  0  0  0  0
  -88.7865   26.0682    3.1686 C   0  0  0  0  0  0  0  0  0  0  0  0
 29 30  1  0  0  0
 30 31  2  0  0  0
 31 32  1  0  0  0
 32 33  2  0  0  0
 33 28  1  0  0  0
 28  1  1  0  0  0
  1  2  1  0  0  0
  2  3  2  0  0  0
  2  4  1  0  0  0
  4 18  1  0  0  0
 18 19  2  0  0  0
 18 20  1  0  0  0
 20 22  1  0  0  0
 22 23  1  0  0  0
 23 24  2  0  0  0
 24 25  1  0  0  0
 25 26  2  0  0  0
 26 27  1  0  0  0
  4  5  2  0  0  0
  5  6  1  0  0  0
  6  7  1  0  0  0
  7  8  2  0  0  0
  7  9  1  0  0  0
  9 10  1  0  0  0
 10 11  2  0  0  0
 11 12  1  0  0  0
 12 13  2  0  0  0
 13 14  1  0  0  0
 14 15  2  0  0  0
 15 16  1  0  0  0
 33 34  1  0  0  0
 34 35  2  0  0  0
 35 30  1  0  0  0
 16  1  1  0  0  0
 27 23  1  0  0  0
 16  6  2  0  0  0
 14  9  1  0  0  0
  3 17  1  0  0  0
 20 21  1  0  0  0
M  END
> <minimizedAffinity>
-8.90201

> <CNNscore>
0.1139466986

> <CNNaffinity>
6.4617066383

> <CNN_VS>
0.7362901568

> <CNNaffinity_variance>
0.1086071134

$$$$
[H]/C(=C(\[H])C([H])([H])C([H])([H])N([H])C(=O)/C([H])=C([H])/C([H])=C([H])/C([H])=C(\[H])c1sc([H])c([H])c1[H])C([H])([H])OC(=O)C([H])([H])C([H])(C([H])([H])[H])C([H])([H])[H]


 27 27  0  0  0  0  0  0  0  0999 V2000
  -88.9987   28.5460   -1.7779 N   0  0  0  0  0  0  0  0  0  0  0  0
  -88.3350   29.2913   -2.7698 C   0  0  0  0  0  0  0  0  0  0  0  0
  -87.6147   28.6843   -3.6010 O   0  0  0  0  0  0  0  0  0  0  0  0
  -89.6026   29.0458   -1.0824 H   0  0  0  0  0  0  0  0  0  0  0  0
  -88.4635   30.7254   -2.8513 C   0  0  0  0  0  0  0  0  0  0  0  0
  -87.7186   31.5774   -2.2076 C   0  0  0  0  0  0  0  0  0  0  0  0
  -87.8981   33.0281   -2.3321 C   0  0  0  0  0  0  0  0  0  0  0  0
  -88.9372   33.5767   -2.8926 C   0  0  0  0  0  0  0  0  0  0  0  0
  -89.0926   35.0404   -3.0044 C   0  0  0  0  0  0  0  0  0  0  0  0
  -88.1589   35.7765   -3.5617 C   0  0  0  0  0  0  0  0  0  0  0  0
  -88.3264   37.2461   -3.6684 C   0  0  0  0  0  0  0  0  0  0  0  0
  -87.9982   38.1956   -2.7388 C   0  0  0  0  0  0  0  0  0  0  0  0
  -88.2415   39.4778   -3.0545 C   0  0  0  0  0  0  0  0  0  0  0  0
  -88.7976   39.7252   -4.2811 C   0  0  0  0  0  0  0  0  0  0  0  0
  -88.9627   38.1698   -4.9516 S   0  0  0  0  0  0  0  0  0  0  0  0
  -88.8991   27.1122   -1.6551 C   0  0  0  0  0  0  0  0  0  0  0  0
  -89.8753   26.5241   -0.6535 C   0  0  0  0  0  0  0  0  0  0  0  0
  -90.8583   24.3035   -0.1895 C   0  0  0  0  0  0  0  0  0  0  0  0
  -90.1427   25.1021   -0.9367 C   0  0  0  0  0  0  0  0  0  0  0  0
  -91.4927   24.7494    1.0528 C   0  0  0  0  0  0  0  0  0  0  0  0
  -90.5066   25.0144    2.0255 O   0  0  0  0  0  0  0  0  0  0  0  0
  -90.7011   24.6494    3.3355 C   0  0  0  0  0  0  0  0  0  0  0  0
  -91.6454   23.8904    3.6358 O   0  0  0  0  0  0  0  0  0  0  0  0
  -89.8144   25.1312    4.4371 C   0  0  0  0  0  0  0  0  0  0  0  0
  -89.7611   26.8609    6.2443 C   0  0  0  0  0  0  0  0  0  0  0  0
  -90.2494   26.5131    4.8743 C   0  0  0  0  0  0  0  0  0  0  0  0
  -89.8224   27.5746    3.9041 C   0  0  0  0  0  0  0  0  0  0  0  0
 25 26  1  0  0  0
 26 27  1  0  0  0
 26 24  1  0  0  0
 24 22  1  0  0  0
 22 23  2  0  0  0
 22 21  1  0  0  0
 21 20  1  0  0  0
 20 18  1  0  0  0
 18 19  2  0  0  0
 19 17  1  0  0  0
 17 16  1  0  0  0
 16  1  1  0  0  0
  1  2  1  0  0  0
  2  3  2  0  0  0
  2  5  1  0  0  0
  5  6  2  0  0  0
  6  7  1  0  0  0
  7  8  2  0  0  0
  8  9  1  0  0  0
  9 10  2  0  0  0
 10 11  1  0  0  0
 11 12  2  0  0  0
 12 13  1  0  0  0
 13 14  2  0  0  0
 14 15  1  0  0  0
 15 11  1  0  0  0
  1  4  1  0  0  0
M  END
> <minimizedAffinity>
-5.63329

> <CNNscore>
0.4357796311

> <CNNaffinity>
5.6138167381

> <CNN_VS>
2.4463870525

> <CNNaffinity_variance>
0.1631038934

$$$$
[H]/C(=C(\[H])C([H])([H])C([H])([H])N([H])C(=O)/C([H])=C([H])/C([H])=C([H])/C([H])=C(\[H])c1sc([H])c([H])c1[H])C([H])([H])OC(=O)C([H])([H])C([H])(C([H])([H])[H])C([H])([H])[H]


 27 27  0  0  0  0  0  0  0  0999 V2000
  -89.8879   30.1658   -3.0652 N   0  0  0  0  0  0  0  0  0  0  0  0
  -91.2686   30.3429   -3.2704 C   0  0  0  0  0  0  0  0  0  0  0  0
  -91.8451   31.3049   -2.7043 O   0  0  0  0  0  0  0  0  0  0  0  0
  -89.4003   29.3666   -3.5359 H   0  0  0  0  0  0  0  0  0  0  0  0
  -92.0292   29.4506   -4.1101 C   0  0  0  0  0  0  0  0  0  0  0  0
  -92.6603   29.8041   -5.1926 C   0  0  0  0  0  0  0  0  0  0  0  0
  -93.4187   28.8479   -6.0069 C   0  0  0  0  0  0  0  0  0  0  0  0
  -93.1529   27.5743   -6.0512 C   0  0  0  0  0  0  0  0  0  0  0  0
  -93.9327   26.6338   -6.8797 C   0  0  0  0  0  0  0  0  0  0  0  0
  -94.8937   25.9098   -6.3537 C   0  0  0  0  0  0  0  0  0  0  0  0
  -95.6704   24.9684   -7.1961 C   0  0  0  0  0  0  0  0  0  0  0  0
  -95.3150   23.7053   -7.5855 C   0  0  0  0  0  0  0  0  0  0  0  0
  -96.1838   23.0298   -8.3549 C   0  0  0  0  0  0  0  0  0  0  0  0
  -97.3520   23.6639   -8.6839 C   0  0  0  0  0  0  0  0  0  0  0  0
  -97.2024   25.1741   -7.9138 S   0  0  0  0  0  0  0  0  0  0  0  0
  -89.0864   31.0299   -2.2335 C   0  0  0  0  0  0  0  0  0  0  0  0
  -87.9954   31.7579   -2.9962 C   0  0  0  0  0  0  0  0  0  0  0  0
  -87.2001   34.0257   -2.4157 C   0  0  0  0  0  0  0  0  0  0  0  0
  -88.1288   33.2198   -2.8585 C   0  0  0  0  0  0  0  0  0  0  0  0
  -85.8819   33.5478   -1.9930 C   0  0  0  0  0  0  0  0  0  0  0  0
  -85.8912   33.2802   -0.6084 O   0  0  0  0  0  0  0  0  0  0  0  0
  -84.8958   32.5265   -0.0356 C   0  0  0  0  0  0  0  0  0  0  0  0
  -83.7261   32.9613   -0.0050 O   0  0  0  0  0  0  0  0  0  0  0  0
  -85.1578   31.1833    0.5636 C   0  0  0  0  0  0  0  0  0  0  0  0
  -84.9690   30.9939    3.0514 C   0  0  0  0  0  0  0  0  0  0  0  0
  -84.2394   30.9648    1.7464 C   0  0  0  0  0  0  0  0  0  0  0  0
  -83.4641   29.6857    1.6326 C   0  0  0  0  0  0  0  0  0  0  0  0
 25 26  1  0  0  0
 26 27  1  0  0  0
 26 24  1  0  0  0
 24 22  1  0  0  0
 22 23  2  0  0  0
 22 21  1  0  0  0
 21 20  1  0  0  0
 20 18  1  0  0  0
 18 19  2  0  0  0
 19 17  1  0  0  0
 17 16  1  0  0  0
 16  1  1  0  0  0
  1  2  1  0  0  0
  2  3  2  0  0  0
  2  5  1  0  0  0
  5  6  2  0  0  0
  6  7  1  0  0  0
  7  8  2  0  0  0
  8  9  1  0  0  0
  9 10  2  0  0  0
 10 11  1  0  0  0
 11 12  2  0  0  0
 12 13  1  0  0  0
 13 14  2  0  0  0
 14 15  1  0  0  0
 15 11  1  0  0  0
  1  4  1  0  0  0
M  END
> <minimizedAffinity>
-5.54344

> <CNNscore>
0.4071853757

> <CNNaffinity>
5.1633658409

> <CNN_VS>
2.1024470329

> <CNNaffinity_variance>
0.1458752453

$$$$
[H]/C(=C(\[H])C([H])([H])C([H])([H])N([H])C(=O)/C([H])=C([H])/C([H])=C([H])/C([H])=C(\[H])c1sc([H])c([H])c1[H])C([H])([H])OC(=O)C([H])([H])C([H])(C([H])([H])[H])C([H])([H])[H]


 27 27  0  0  0  0  0  0  0  0999 V2000
  -89.4274   27.7119   -0.8064 N   0  0  0  0  0  0  0  0  0  0  0  0
  -89.4091   28.0885   -2.1620 C   0  0  0  0  0  0  0  0  0  0  0  0
  -89.5674   27.2017   -3.0376 O   0  0  0  0  0  0  0  0  0  0  0  0
  -89.2979   28.4468   -0.0707 H   0  0  0  0  0  0  0  0  0  0  0  0
  -89.2144   29.4599   -2.5636 C   0  0  0  0  0  0  0  0  0  0  0  0
  -88.2207   29.8899   -3.2865 C   0  0  0  0  0  0  0  0  0  0  0  0
  -88.0768   31.3004   -3.6636 C   0  0  0  0  0  0  0  0  0  0  0  0
  -87.4017   32.1650   -2.9624 C   0  0  0  0  0  0  0  0  0  0  0  0
  -87.2729   33.5792   -3.3653 C   0  0  0  0  0  0  0  0  0  0  0  0
  -87.8656   34.0281   -4.4477 C   0  0  0  0  0  0  0  0  0  0  0  0
  -87.7290   35.4511   -4.8422 C   0  0  0  0  0  0  0  0  0  0  0  0
  -87.5182   35.9551   -6.0972 C   0  0  0  0  0  0  0  0  0  0  0  0
  -87.4264   37.2892   -6.2186 C   0  0  0  0  0  0  0  0  0  0  0  0
  -87.5520   38.0314   -5.0747 C   0  0  0  0  0  0  0  0  0  0  0  0
  -87.7926   36.8512   -3.8725 S   0  0  0  0  0  0  0  0  0  0  0  0
  -89.6164   26.3544   -0.3567 C   0  0  0  0  0  0  0  0  0  0  0  0
  -88.6763   25.9549    0.7651 C   0  0  0  0  0  0  0  0  0  0  0  0
  -87.3879   27.5145    2.1865 C   0  0  0  0  0  0  0  0  0  0  0  0
  -88.5255   27.0409    1.7508 C   0  0  0  0  0  0  0  0  0  0  0  0
  -86.0958   26.9996    1.7280 C   0  0  0  0  0  0  0  0  0  0  0  0
  -85.1917   28.0669    1.5488 O   0  0  0  0  0  0  0  0  0  0  0  0
  -83.9835   28.0766    2.2025 C   0  0  0  0  0  0  0  0  0  0  0  0
  -83.6569   27.1087    2.9198 O   0  0  0  0  0  0  0  0  0  0  0  0
  -83.0255   29.2174    2.0898 C   0  0  0  0  0  0  0  0  0  0  0  0
  -84.3665   31.3162    2.3298 C   0  0  0  0  0  0  0  0  0  0  0  0
  -83.6934   30.3760    1.3815 C   0  0  0  0  0  0  0  0  0  0  0  0
  -82.7355   31.1375    0.5139 C   0  0  0  0  0  0  0  0  0  0  0  0
 25 26  1  0  0  0
 26 27  1  0  0  0
 26 24  1  0  0  0
 24 22  1  0  0  0
 22 23  2  0  0  0
 22 21  1  0  0  0
 21 20  1  0  0  0
 20 18  1  0  0  0
 18 19  2  0  0  0
 19 17  1  0  0  0
 17 16  1  0  0  0
 16  1  1  0  0  0
  1  2  1  0  0  0
  2  3  2  0  0  0
  2  5  1  0  0  0
  5  6  2  0  0  0
  6  7  1  0  0  0
  7  8  2  0  0  0
  8  9  1  0  0  0
  9 10  2  0  0  0
 10 11  1  0  0  0
 11 12  2  0  0  0
 12 13  1  0  0  0
 13 14  2  0  0  0
 14 15  1  0  0  0
 15 11  1  0  0  0
  1  4  1  0  0  0
M  END
> <minimizedAffinity>
-6.86283

> <CNNscore>
0.4032351077

> <CNNaffinity>
6.4708237648

> <CNN_VS>
2.6092634201

> <CNNaffinity_variance>
0.3696024120

$$$$
[H]/C(=C(\[H])C([H])([H])C([H])([H])N([H])C(=O)/C([H])=C([H])/C([H])=C([H])/C([H])=C(\[H])c1sc([H])c([H])c1[H])C([H])([H])OC(=O)C([H])([H])C([H])(C([H])([H])[H])C([H])([H])[H]


 27 27  0  0  0  0  0  0  0  0999 V2000
  -90.5519   30.5527   -4.0174 N   0  0  0  0  0  0  0  0  0  0  0  0
  -91.8104   30.0753   -3.6072 C   0  0  0  0  0  0  0  0  0  0  0  0
  -92.5552   30.8333   -2.9372 O   0  0  0  0  0  0  0  0  0  0  0  0
  -89.9264   29.9263   -4.5781 H   0  0  0  0  0  0  0  0  0  0  0  0
  -92.2592   28.7451   -3.9375 C   0  0  0  0  0  0  0  0  0  0  0  0
  -93.3453   28.4689   -4.6002 C   0  0  0  0  0  0  0  0  0  0  0  0
  -93.7497   27.0923   -4.9063 C   0  0  0  0  0  0  0  0  0  0  0  0
  -94.8629   26.7890   -5.5092 C   0  0  0  0  0  0  0  0  0  0  0  0
  -95.2454   25.3944   -5.8052 C   0  0  0  0  0  0  0  0  0  0  0  0
  -94.9250   24.8363   -6.9499 C   0  0  0  0  0  0  0  0  0  0  0  0
  -95.3147   23.4343   -7.2359 C   0  0  0  0  0  0  0  0  0  0  0  0
  -95.2815   22.7856   -8.4406 C   0  0  0  0  0  0  0  0  0  0  0  0
  -95.6849   21.5051   -8.4628 C   0  0  0  0  0  0  0  0  0  0  0  0
  -96.0950   20.9579   -7.2764 C   0  0  0  0  0  0  0  0  0  0  0  0
  -95.9062   22.2401   -6.1736 S   0  0  0  0  0  0  0  0  0  0  0  0
  -90.0592   31.8730   -3.7096 C   0  0  0  0  0  0  0  0  0  0  0  0
  -88.7591   31.8638   -2.9277 C   0  0  0  0  0  0  0  0  0  0  0  0
  -87.8806   29.7303   -2.0393 C   0  0  0  0  0  0  0  0  0  0  0  0
  -88.0808   30.5587   -3.0302 C   0  0  0  0  0  0  0  0  0  0  0  0
  -88.3223   30.0188   -0.6732 C   0  0  0  0  0  0  0  0  0  0  0  0
  -87.2812   29.7380    0.2357 O   0  0  0  0  0  0  0  0  0  0  0  0
  -86.1079   30.4514    0.1967 C   0  0  0  0  0  0  0  0  0  0  0  0
  -86.1388   31.6993    0.1962 O   0  0  0  0  0  0  0  0  0  0  0  0
  -84.7713   29.7855    0.1537 C   0  0  0  0  0  0  0  0  0  0  0  0
  -83.4937   29.0805    2.1862 C   0  0  0  0  0  0  0  0  0  0  0  0
  -83.9425   30.2286    1.3397 C   0  0  0  0  0  0  0  0  0  0  0  0
  -82.7528   31.0436    0.9266 C   0  0  0  0  0  0  0  0  0  0  0  0
 25 26  1  0  0  0
 26 27  1  0  0  0
 26 24  1  0  0  0
 24 22  1  0  0  0
 22 23  2  0  0  0
 22 21  1  0  0  0
 21 20  1  0  0  0
 20 18  1  0  0  0
 18 19  2  0  0  0
 19 17  1  0  0  0
 17 16  1  0  0  0
 16  1  1  0  0  0
  1  2  1  0  0  0
  2  3  2  0  0  0
  2  5  1  0  0  0
  5  6  2  0  0  0
  6  7  1  0  0  0
  7  8  2  0  0  0
  8  9  1  0  0  0
  9 10  2  0  0  0
 10 11  1  0  0  0
 11 12  2  0  0  0
 12 13  1  0  0  0
 13 14  2  0  0  0
 14 15  1  0  0  0
 15 11  1  0  0  0
  1  4  1  0  0  0
M  END
> <minimizedAffinity>
-5.19063

> <CNNscore>
0.3919023275

> <CNNaffinity>
5.2283725739

> <CNN_VS>
2.0490114689

> <CNNaffinity_variance>
0.3433380425

$$$$
[H]/C(=C(\[H])C([H])([H])C([H])([H])N([H])C(=O)/C([H])=C([H])/C([H])=C([H])/C([H])=C(\[H])c1sc([H])c([H])c1[H])C([H])([H])OC(=O)C([H])([H])C([H])(C([H])([H])[H])C([H])([H])[H]


 27 27  0  0  0  0  0  0  0  0999 V2000
  -88.7367   30.1610   -2.2928 N   0  0  0  0  0  0  0  0  0  0  0  0
  -89.9565   29.6260   -1.8392 C   0  0  0  0  0  0  0  0  0  0  0  0
  -90.3072   29.8426   -0.6525 O   0  0  0  0  0  0  0  0  0  0  0  0
  -88.4390   29.9858   -3.2821 H   0  0  0  0  0  0  0  0  0  0  0  0
  -90.8053   28.8410   -2.7013 C   0  0  0  0  0  0  0  0  0  0  0  0
  -91.7300   29.3267   -3.4785 C   0  0  0  0  0  0  0  0  0  0  0  0
  -92.5631   28.4751   -4.3347 C   0  0  0  0  0  0  0  0  0  0  0  0
  -92.4033   27.1872   -4.4381 C   0  0  0  0  0  0  0  0  0  0  0  0
  -93.2565   26.3536   -5.3076 C   0  0  0  0  0  0  0  0  0  0  0  0
  -93.7993   25.2460   -4.8570 C   0  0  0  0  0  0  0  0  0  0  0  0
  -94.6548   24.4168   -5.7400 C   0  0  0  0  0  0  0  0  0  0  0  0
  -94.8953   24.5910   -7.0761 C   0  0  0  0  0  0  0  0  0  0  0  0
  -95.7112   23.7092   -7.6759 C   0  0  0  0  0  0  0  0  0  0  0  0
  -96.2327   22.7103   -6.8980 C   0  0  0  0  0  0  0  0  0  0  0  0
  -95.5723   23.0310   -5.3628 S   0  0  0  0  0  0  0  0  0  0  0  0
  -87.8542   30.9495   -1.4680 C   0  0  0  0  0  0  0  0  0  0  0  0
  -87.3281   32.1908   -2.1639 C   0  0  0  0  0  0  0  0  0  0  0  0
  -86.1084   33.6411   -0.5759 C   0  0  0  0  0  0  0  0  0  0  0  0
  -87.1972   33.3184   -1.2229 C   0  0  0  0  0  0  0  0  0  0  0  0
  -84.8584   32.8918   -0.7194 C   0  0  0  0  0  0  0  0  0  0  0  0
  -84.4986   32.3196    0.5183 O   0  0  0  0  0  0  0  0  0  0  0  0
  -83.5003   31.3786    0.5894 C   0  0  0  0  0  0  0  0  0  0  0  0
  -82.8738   31.0577   -0.4413 O   0  0  0  0  0  0  0  0  0  0  0  0
  -83.1252   30.7100    1.8717 C   0  0  0  0  0  0  0  0  0  0  0  0
  -82.7056   28.2884    2.3408 C   0  0  0  0  0  0  0  0  0  0  0  0
  -83.7049   29.3127    1.9067 C   0  0  0  0  0  0  0  0  0  0  0  0
  -84.9233   29.2266    2.7775 C   0  0  0  0  0  0  0  0  0  0  0  0
 25 26  1  0  0  0
 26 27  1  0  0  0
 26 24  1  0  0  0
 24 22  1  0  0  0
 22 23  2  0  0  0
 22 21  1  0  0  0
 21 20  1  0  0  0
 20 18  1  0  0  0
 18 19  2  0  0  0
 19 17  1  0  0  0
 17 16  1  0  0  0
 16  1  1  0  0  0
  1  2  1  0  0  0
  2  3  2  0  0  0
  2  5  1  0  0  0
  5  6  2  0  0  0
  6  7  1  0  0  0
  7  8  2  0  0  0
  8  9  1  0  0  0
  9 10  2  0  0  0
 10 11  1  0  0  0
 11 12  2  0  0  0
 12 13  1  0  0  0
 13 14  2  0  0  0
 14 15  1  0  0  0
 15 11  1  0  0  0
  1  4  1  0  0  0
M  END
> <minimizedAffinity>
-5.76879

> <CNNscore>
0.3812033832

> <CNNaffinity>
5.2568206787

> <CNN_VS>
2.0039179325

> <CNNaffinity_variance>
0.1000514999

$$$$
[H]/C(=C(\[H])C([H])([H])C([H])([H])N([H])C(=O)/C([H])=C([H])/C([H])=C([H])/C([H])=C(\[H])c1sc([H])c([H])c1[H])C([H])([H])OC(=O)C([H])([H])C([H])(C([H])([H])[H])C([H])([H])[H]


 27 27  0  0  0  0  0  0  0  0999 V2000
  -88.5963   27.4931   -2.6156 N   0  0  0  0  0  0  0  0  0  0  0  0
  -89.8323   27.0286   -2.1294 C   0  0  0  0  0  0  0  0  0  0  0  0
  -90.0617   27.0996   -0.8963 O   0  0  0  0  0  0  0  0  0  0  0  0
  -88.3990   27.4386   -3.6433 H   0  0  0  0  0  0  0  0  0  0  0  0
  -90.8327   26.4776   -3.0100 C   0  0  0  0  0  0  0  0  0  0  0  0
  -91.8500   27.1364   -3.4857 C   0  0  0  0  0  0  0  0  0  0  0  0
  -92.8364   26.5195   -4.3794 C   0  0  0  0  0  0  0  0  0  0  0  0
  -93.2113   25.2764   -4.2848 C   0  0  0  0  0  0  0  0  0  0  0  0
  -94.2066   24.6807   -5.1978 C   0  0  0  0  0  0  0  0  0  0  0  0
  -94.5201   25.2691   -6.3292 C   0  0  0  0  0  0  0  0  0  0  0  0
  -95.5214   24.6610   -7.2385 C   0  0  0  0  0  0  0  0  0  0  0  0
  -96.6793   25.2230   -7.7042 C   0  0  0  0  0  0  0  0  0  0  0  0
  -97.4390   24.4797   -8.5248 C   0  0  0  0  0  0  0  0  0  0  0  0
  -96.9889   23.2219   -8.8254 C   0  0  0  0  0  0  0  0  0  0  0  0
  -95.5284   23.1164   -7.9585 S   0  0  0  0  0  0  0  0  0  0  0  0
  -87.5649   28.0495   -1.7745 C   0  0  0  0  0  0  0  0  0  0  0  0
  -87.3683   29.5413   -1.9692 C   0  0  0  0  0  0  0  0  0  0  0  0
  -87.9870   31.4344   -0.5042 C   0  0  0  0  0  0  0  0  0  0  0  0
  -88.2859   30.3190   -1.1164 C   0  0  0  0  0  0  0  0  0  0  0  0
  -86.6633   32.0532   -0.6015 C   0  0  0  0  0  0  0  0  0  0  0  0
  -85.7427   31.3418    0.1956 O   0  0  0  0  0  0  0  0  0  0  0  0
  -84.5069   31.8712    0.4774 C   0  0  0  0  0  0  0  0  0  0  0  0
  -84.0944   32.8614   -0.1609 O   0  0  0  0  0  0  0  0  0  0  0  0
  -83.6182   31.3020    1.5348 C   0  0  0  0  0  0  0  0  0  0  0  0
  -82.8025   28.9963    2.0631 C   0  0  0  0  0  0  0  0  0  0  0  0
  -83.9939   29.8591    1.7940 C   0  0  0  0  0  0  0  0  0  0  0  0
  -84.9771   29.7231    2.9188 C   0  0  0  0  0  0  0  0  0  0  0  0
 25 26  1  0  0  0
 26 27  1  0  0  0
 26 24  1  0  0  0
 24 22  1  0  0  0
 22 23  2  0  0  0
 22 21  1  0  0  0
 21 20  1  0  0  0
 20 18  1  0  0  0
 18 19  2  0  0  0
 19 17  1  0  0  0
 17 16  1  0  0  0
 16  1  1  0  0  0
  1  2  1  0  0  0
  2  3  2  0  0  0
  2  5  1  0  0  0
  5  6  2  0  0  0
  6  7  1  0  0  0
  7  8  2  0  0  0
  8  9  1  0  0  0
  9 10  2  0  0  0
 10 11  1  0  0  0
 11 12  2  0  0  0
 12 13  1  0  0  0
 13 14  2  0  0  0
 14 15  1  0  0  0
 15 11  1  0  0  0
  1  4  1  0  0  0
M  END
> <minimizedAffinity>
-6.23091

> <CNNscore>
0.3595139980

> <CNNaffinity>
5.2692737579

> <CNN_VS>
1.8943777084

> <CNNaffinity_variance>
0.1081049219

$$$$
[H]/C(=C(\[H])C([H])([H])C([H])([H])N([H])C(=O)/C([H])=C([H])/C([H])=C([H])/C([H])=C(\[H])c1sc([H])c([H])c1[H])C([H])([H])OC(=O)C([H])([H])C([H])(C([H])([H])[H])C([H])([H])[H]


 27 27  0  0  0  0  0  0  0  0999 V2000
  -88.8179   27.3073   -2.5995 N   0  0  0  0  0  0  0  0  0  0  0  0
  -90.0474   26.8213   -2.1181 C   0  0  0  0  0  0  0  0  0  0  0  0
  -90.2828   26.8881   -0.8859 O   0  0  0  0  0  0  0  0  0  0  0  0
  -88.6158   27.2564   -3.6265 H   0  0  0  0  0  0  0  0  0  0  0  0
  -91.0347   26.2530   -3.0025 C   0  0  0  0  0  0  0  0  0  0  0  0
  -91.8949   26.9400   -3.6976 C   0  0  0  0  0  0  0  0  0  0  0  0
  -92.8770   26.3032   -4.5822 C   0  0  0  0  0  0  0  0  0  0  0  0
  -93.4222   25.1474   -4.3343 C   0  0  0  0  0  0  0  0  0  0  0  0
  -94.4085   24.5292   -5.2421 C   0  0  0  0  0  0  0  0  0  0  0  0
  -94.5797   24.9846   -6.4618 C   0  0  0  0  0  0  0  0  0  0  0  0
  -95.5736   24.3553   -7.3647 C   0  0  0  0  0  0  0  0  0  0  0  0
  -96.7210   24.9105   -7.8632 C   0  0  0  0  0  0  0  0  0  0  0  0
  -97.4755   24.1471   -8.6700 C   0  0  0  0  0  0  0  0  0  0  0  0
  -97.0310   22.8773   -8.9250 C   0  0  0  0  0  0  0  0  0  0  0  0
  -95.5827   22.7888   -8.0359 S   0  0  0  0  0  0  0  0  0  0  0  0
  -87.7996   27.8816   -1.7544 C   0  0  0  0  0  0  0  0  0  0  0  0
  -87.7178   29.3934   -1.8519 C   0  0  0  0  0  0  0  0  0  0  0  0
  -88.6366   31.2417   -0.4908 C   0  0  0  0  0  0  0  0  0  0  0  0
  -88.7313   30.0414   -0.9992 C   0  0  0  0  0  0  0  0  0  0  0  0
  -87.4738   32.1020   -0.7199 C   0  0  0  0  0  0  0  0  0  0  0  0
  -87.7928   33.0949   -1.6692 O   0  0  0  0  0  0  0  0  0  0  0  0
  -86.7988   33.7786   -2.3263 C   0  0  0  0  0  0  0  0  0  0  0  0
  -85.6031   33.5669   -2.0376 O   0  0  0  0  0  0  0  0  0  0  0  0
  -87.0930   34.7838   -3.3916 C   0  0  0  0  0  0  0  0  0  0  0  0
  -89.1525   36.1715   -3.6971 C   0  0  0  0  0  0  0  0  0  0  0  0
  -88.5766   34.7914   -3.6897 C   0  0  0  0  0  0  0  0  0  0  0  0
  -88.8976   34.1060   -4.9848 C   0  0  0  0  0  0  0  0  0  0  0  0
 25 26  1  0  0  0
 26 27  1  0  0  0
 26 24  1  0  0  0
 24 22  1  0  0  0
 22 23  2  0  0  0
 22 21  1  0  0  0
 21 20  1  0  0  0
 20 18  1  0  0  0
 18 19  2  0  0  0
 19 17  1  0  0  0
 17 16  1  0  0  0
 16  1  1  0  0  0
  1  2  1  0  0  0
  2  3  2  0  0  0
  2  5  1  0  0  0
  5  6  2  0  0  0
  6  7  1  0  0  0
  7  8  2  0  0  0
  8  9  1  0  0  0
  9 10  2  0  0  0
 10 11  1  0  0  0
 11 12  2  0  0  0
 12 13  1  0  0  0
 13 14  2  0  0  0
 14 15  1  0  0  0
 15 11  1  0  0  0
  1  4  1  0  0  0
M  END
> <minimizedAffinity>
-4.99748

> <CNNscore>
0.3547639251

> <CNNaffinity>
5.0310440063

> <CNN_VS>
1.7848329544

> <CNNaffinity_variance>
0.0413264669

$$$$
[H]/C(=C(\[H])C([H])([H])C([H])([H])N([H])C(=O)/C([H])=C([H])/C([H])=C([H])/C([H])=C(\[H])c1sc([H])c([H])c1[H])C([H])([H])OC(=O)C([H])([H])C([H])(C([H])([H])[H])C([H])([H])[H]


 27 27  0  0  0  0  0  0  0  0999 V2000
  -90.7004   30.5212   -3.7270 N   0  0  0  0  0  0  0  0  0  0  0  0
  -91.8509   30.2634   -4.4950 C   0  0  0  0  0  0  0  0  0  0  0  0
  -92.2963   31.1717   -5.2397 O   0  0  0  0  0  0  0  0  0  0  0  0
  -90.3223   29.7673   -3.1051 H   0  0  0  0  0  0  0  0  0  0  0  0
  -92.5235   28.9886   -4.4453 C   0  0  0  0  0  0  0  0  0  0  0  0
  -92.0598   27.9247   -3.8552 C   0  0  0  0  0  0  0  0  0  0  0  0
  -92.7924   26.6538   -3.8387 C   0  0  0  0  0  0  0  0  0  0  0  0
  -92.2647   25.5267   -3.4567 C   0  0  0  0  0  0  0  0  0  0  0  0
  -93.0252   24.2615   -3.4499 C   0  0  0  0  0  0  0  0  0  0  0  0
  -94.0691   24.0987   -4.2298 C   0  0  0  0  0  0  0  0  0  0  0  0
  -94.8252   22.8231   -4.2143 C   0  0  0  0  0  0  0  0  0  0  0  0
  -95.0621   22.0036   -3.1438 C   0  0  0  0  0  0  0  0  0  0  0  0
  -95.7780   20.8896   -3.3666 C   0  0  0  0  0  0  0  0  0  0  0  0
  -96.2099   20.6694   -4.6472 C   0  0  0  0  0  0  0  0  0  0  0  0
  -95.6069   22.0158   -5.4955 S   0  0  0  0  0  0  0  0  0  0  0  0
  -89.9954   31.7796   -3.7416 C   0  0  0  0  0  0  0  0  0  0  0  0
  -88.7631   31.7901   -2.8566 C   0  0  0  0  0  0  0  0  0  0  0  0
  -87.5591   29.7750   -2.0807 C   0  0  0  0  0  0  0  0  0  0  0  0
  -87.9608   30.5668   -3.0398 C   0  0  0  0  0  0  0  0  0  0  0  0
  -87.8721   30.0260   -0.6723 C   0  0  0  0  0  0  0  0  0  0  0  0
  -87.1583   31.1540   -0.2171 O   0  0  0  0  0  0  0  0  0  0  0  0
  -85.8302   31.0518    0.1186 C   0  0  0  0  0  0  0  0  0  0  0  0
  -85.0791   32.0407   -0.0079 O   0  0  0  0  0  0  0  0  0  0  0  0
  -85.2347   29.7841    0.6383 C   0  0  0  0  0  0  0  0  0  0  0  0
  -85.2414   29.6928    3.1387 C   0  0  0  0  0  0  0  0  0  0  0  0
  -84.4696   30.0652    1.9132 C   0  0  0  0  0  0  0  0  0  0  0  0
  -83.1337   29.3832    1.9341 C   0  0  0  0  0  0  0  0  0  0  0  0
 25 26  1  0  0  0
 26 27  1  0  0  0
 26 24  1  0  0  0
 24 22  1  0  0  0
 22 23  2  0  0  0
 22 21  1  0  0  0
 21 20  1  0  0  0
 20 18  1  0  0  0
 18 19  2  0  0  0
 19 17  1  0  0  0
 17 16  1  0  0  0
 16  1  1  0  0  0
  1  2  1  0  0  0
  2  3  2  0  0  0
  2  5  1  0  0  0
  5  6  2  0  0  0
  6  7  1  0  0  0
  7  8  2  0  0  0
  8  9  1  0  0  0
  9 10  2  0  0  0
 10 11  1  0  0  0
 11 12  2  0  0  0
 12 13  1  0  0  0
 13 14  2  0  0  0
 14 15  1  0  0  0
 15 11  1  0  0  0
  1  4  1  0  0  0
M  END
> <minimizedAffinity>
-5.11160

> <CNNscore>
0.3288815320

> <CNNaffinity>
5.1620917320

> <CNN_VS>
1.6977165937

> <CNNaffinity_variance>
0.2919091582

$$$$
[H]/C(=C(\[H])C([H])([H])C([H])([H])N([H])C(=O)/C([H])=C([H])/C([H])=C([H])/C([H])=C(\[H])c1sc([H])c([H])c1[H])C([H])([H])OC(=O)C([H])([H])C([H])(C([H])([H])[H])C([H])([H])[H]


 27 27  0  0  0  0  0  0  0  0999 V2000
  -92.1290   27.5433   -3.6480 N   0  0  0  0  0  0  0  0  0  0  0  0
  -91.7009   26.9953   -2.4248 C   0  0  0  0  0  0  0  0  0  0  0  0
  -92.4694   26.2141   -1.8107 O   0  0  0  0  0  0  0  0  0  0  0  0
  -91.4921   28.1941   -4.1665 H   0  0  0  0  0  0  0  0  0  0  0  0
  -90.4087   27.3091   -1.8664 C   0  0  0  0  0  0  0  0  0  0  0  0
  -89.3541   27.6247   -2.5616 C   0  0  0  0  0  0  0  0  0  0  0  0
  -88.0644   27.9345   -1.9346 C   0  0  0  0  0  0  0  0  0  0  0  0
  -87.9008   28.8890   -1.0645 C   0  0  0  0  0  0  0  0  0  0  0  0
  -86.5910   29.1793   -0.4487 C   0  0  0  0  0  0  0  0  0  0  0  0
  -86.1607   30.4143   -0.3311 C   0  0  0  0  0  0  0  0  0  0  0  0
  -84.8431   30.6936    0.2895 C   0  0  0  0  0  0  0  0  0  0  0  0
  -84.0966   29.8612    1.0790 C   0  0  0  0  0  0  0  0  0  0  0  0
  -82.9236   30.3304    1.5338 C   0  0  0  0  0  0  0  0  0  0  0  0
  -82.5749   31.6030    1.1677 C   0  0  0  0  0  0  0  0  0  0  0  0
  -83.8872   32.1021    0.2061 S   0  0  0  0  0  0  0  0  0  0  0  0
  -93.4117   27.2611   -4.2445 C   0  0  0  0  0  0  0  0  0  0  0  0
  -93.4088   26.0236   -5.1223 C   0  0  0  0  0  0  0  0  0  0  0  0
  -95.3778   25.6317   -6.5654 C   0  0  0  0  0  0  0  0  0  0  0  0
  -94.2348   26.2194   -6.3280 C   0  0  0  0  0  0  0  0  0  0  0  0
  -95.9821   24.6822   -5.6285 C   0  0  0  0  0  0  0  0  0  0  0  0
  -95.4241   23.4011   -5.8188 O   0  0  0  0  0  0  0  0  0  0  0  0
  -95.5685   22.4266   -4.8614 C   0  0  0  0  0  0  0  0  0  0  0  0
  -96.7048   21.9907   -4.5844 O   0  0  0  0  0  0  0  0  0  0  0  0
  -94.4020   21.8555   -4.1233 C   0  0  0  0  0  0  0  0  0  0  0  0
  -94.3038   22.7859   -1.8027 C   0  0  0  0  0  0  0  0  0  0  0  0
  -93.8120   22.9077   -3.2096 C   0  0  0  0  0  0  0  0  0  0  0  0
  -92.3120   22.8908   -3.2208 C   0  0  0  0  0  0  0  0  0  0  0  0
 25 26  1  0  0  0
 26 27  1  0  0  0
 26 24  1  0  0  0
 24 22  1  0  0  0
 22 23  2  0  0  0
 22 21  1  0  0  0
 21 20  1  0  0  0
 20 18  1  0  0  0
 18 19  2  0  0  0
 19 17  1  0  0  0
 17 16  1  0  0  0
 16  1  1  0  0  0
  1  2  1  0  0  0
  2  3  2  0  0  0
  2  5  1  0  0  0
  5  6  2  0  0  0
  6  7  1  0  0  0
  7  8  2  0  0  0
  8  9  1  0  0  0
  9 10  2  0  0  0
 10 11  1  0  0  0
 11 12  2  0  0  0
 12 13  1  0  0  0
 13 14  2  0  0  0
 14 15  1  0  0  0
 15 11  1  0  0  0
  1  4  1  0  0  0
M  END
> <minimizedAffinity>
-4.70631

> <CNNscore>
0.3159217238

> <CNNaffinity>
5.3642148972

> <CNN_VS>
1.6946719885

> <CNNaffinity_variance>
0.6253851652

$$$$
[H]Oc1nc(N([H])c2c([H])c(OC([H])([H])[H])c([H])c([H])c2OC([H])([H])[H])c([H])c2c([H])c([H])c([H])c([H])c12


 24 26  0  0  0  0  0  0  0  0999 V2000
  -87.6221   27.1647    1.3783 N   0  0  0  0  0  0  0  0  0  0  0  0
  -87.6900   26.3600    0.6492 H   0  0  0  0  0  0  0  0  0  0  0  0
  -86.3541   27.7237    1.5115 C   0  0  0  0  0  0  0  0  0  0  0  0
  -86.0713   28.9322    0.8754 C   0  0  0  0  0  0  0  0  0  0  0  0
  -84.8261   29.5268    0.9781 C   0  0  0  0  0  0  0  0  0  0  0  0
  -84.5368   30.7229    0.3521 C   0  0  0  0  0  0  0  0  0  0  0  0
  -83.2835   31.2735    0.4848 C   0  0  0  0  0  0  0  0  0  0  0  0
  -82.3237   30.6557    1.2252 C   0  0  0  0  0  0  0  0  0  0  0  0
  -82.6067   29.4667    1.8492 C   0  0  0  0  0  0  0  0  0  0  0  0
  -83.8517   28.9111    1.7227 C   0  0  0  0  0  0  0  0  0  0  0  0
  -84.1466   27.7169    2.3455 C   0  0  0  0  0  0  0  0  0  0  0  0
  -83.1680   27.0898    3.0985 O   0  0  0  0  0  0  0  0  0  0  0  0
  -85.3698   27.1974    2.2047 N   0  0  0  0  0  0  0  0  0  0  0  0
  -83.1827   27.2595    4.0930 H   0  0  0  0  0  0  0  0  0  0  0  0
  -90.3840   27.3125    3.9107 C   0  0  0  0  0  0  0  0  0  0  0  0
  -91.2636   28.0987    3.2134 C   0  0  0  0  0  0  0  0  0  0  0  0
  -90.9726   28.5720    1.9521 C   0  0  0  0  0  0  0  0  0  0  0  0
  -89.7620   28.2548    1.3557 C   0  0  0  0  0  0  0  0  0  0  0  0
  -88.8297   27.4578    2.0207 C   0  0  0  0  0  0  0  0  0  0  0  0
  -89.1695   27.0087    3.2828 C   0  0  0  0  0  0  0  0  0  0  0  0
  -89.7645   26.7373    6.2198 C   0  0  0  0  0  0  0  0  0  0  0  0
  -90.6874   26.8401    5.1831 O   0  0  0  0  0  0  0  0  0  0  0  0
  -89.4405   28.7137    0.0922 O   0  0  0  0  0  0  0  0  0  0  0  0
  -90.3660   28.5304   -0.9739 C   0  0  0  0  0  0  0  0  0  0  0  0
 21 22  1  0  0  0
 22 15  1  0  0  0
 15 16  2  0  0  0
 16 17  1  0  0  0
 17 18  2  0  0  0
 18 23  1  0  0  0
 23 24  1  0  0  0
 18 19  1  0  0  0
 19  1  1  0  0  0
  1  3  1  0  0  0
  3  4  2  0  0  0
  4  5  1  0  0  0
  5  6  2  0  0  0
  6  7  1  0  0  0
  7  8  2  0  0  0
  8  9  1  0  0  0
  9 10  2  0  0  0
 10 11  1  0  0  0
 11 12  1  0  0  0
 11 13  2  0  0  0
 19 20  2  0  0  0
 20 15  1  0  0  0
 13  3  1  0  0  0
 10  5  1  0  0  0
  1  2  1  0  0  0
 12 14  1  0  0  0
M  END
> <minimizedAffinity>
-8.81681

> <CNNscore>
0.8263500929

> <CNNaffinity>
6.2910003662

> <CNN_VS>
5.1985688210

> <CNNaffinity_variance>
0.1062049493

$$$$
[H]Oc1nc(N([H])c2c([H])c(OC([H])([H])[H])c([H])c([H])c2OC([H])([H])[H])c([H])c2c([H])c([H])c([H])c([H])c12


 24 26  0  0  0  0  0  0  0  0999 V2000
  -87.5355   27.0814    1.7244 N   0  0  0  0  0  0  0  0  0  0  0  0
  -87.5451   26.0222    1.9729 H   0  0  0  0  0  0  0  0  0  0  0  0
  -86.2786   27.6783    1.7693 C   0  0  0  0  0  0  0  0  0  0  0  0
  -86.0953   28.9274    1.1765 C   0  0  0  0  0  0  0  0  0  0  0  0
  -84.8651   29.5606    1.1951 C   0  0  0  0  0  0  0  0  0  0  0  0
  -84.6739   30.7969    0.6111 C   0  0  0  0  0  0  0  0  0  0  0  0
  -83.4314   31.3849    0.6564 C   0  0  0  0  0  0  0  0  0  0  0  0
  -82.3869   30.7650    1.2693 C   0  0  0  0  0  0  0  0  0  0  0  0
  -82.5722   29.5360    1.8511 C   0  0  0  0  0  0  0  0  0  0  0  0
  -83.8057   28.9430    1.8109 C   0  0  0  0  0  0  0  0  0  0  0  0
  -84.0028   27.7084    2.3923 C   0  0  0  0  0  0  0  0  0  0  0  0
  -82.9381   27.0792    3.0156 O   0  0  0  0  0  0  0  0  0  0  0  0
  -85.2170   27.1530    2.3380 N   0  0  0  0  0  0  0  0  0  0  0  0
  -82.8636   27.1969    4.0149 H   0  0  0  0  0  0  0  0  0  0  0  0
  -90.4702   28.4685   -0.1536 C   0  0  0  0  0  0  0  0  0  0  0  0
  -91.3253   28.6503    0.9017 C   0  0  0  0  0  0  0  0  0  0  0  0
  -90.9636   28.3324    2.1931 C   0  0  0  0  0  0  0  0  0  0  0  0
  -89.7045   27.8131    2.4515 C   0  0  0  0  0  0  0  0  0  0  0  0
  -88.7942   27.6076    1.4144 C   0  0  0  0  0  0  0  0  0  0  0  0
  -89.2054   27.9425    0.1382 C   0  0  0  0  0  0  0  0  0  0  0  0
  -89.9553   28.9154   -2.5162 C   0  0  0  0  0  0  0  0  0  0  0  0
  -90.8451   28.7927   -1.4531 O   0  0  0  0  0  0  0  0  0  0  0  0
  -89.3116   27.4842    3.7353 O   0  0  0  0  0  0  0  0  0  0  0  0
  -90.2969   27.3469    4.7536 C   0  0  0  0  0  0  0  0  0  0  0  0
 21 22  1  0  0  0
 22 15  1  0  0  0
 15 16  2  0  0  0
 16 17  1  0  0  0
 17 18  2  0  0  0
 18 23  1  0  0  0
 23 24  1  0  0  0
 18 19  1  0  0  0
 19  1  1  0  0  0
  1  3  1  0  0  0
  3  4  2  0  0  0
  4  5  1  0  0  0
  5  6  2  0  0  0
  6  7  1  0  0  0
  7  8  2  0  0  0
  8  9  1  0  0  0
  9 10  2  0  0  0
 10 11  1  0  0  0
 11 12  1  0  0  0
 11 13  2  0  0  0
 19 20  2  0  0  0
 20 15  1  0  0  0
 13  3  1  0  0  0
 10  5  1  0  0  0
  1  2  1  0  0  0
 12 14  1  0  0  0
M  END
> <minimizedAffinity>
-8.59912

> <CNNscore>
0.7842605710

> <CNNaffinity>
6.2262644768

> <CNN_VS>
4.8830137253

> <CNNaffinity_variance>
0.1829663962

$$$$
[H]Oc1nc(N([H])c2c([H])c(OC([H])([H])[H])c([H])c([H])c2OC([H])([H])[H])c([H])c2c([H])c([H])c([H])c([H])c12


 24 26  0  0  0  0  0  0  0  0999 V2000
  -87.1541   26.3411    2.0693 N   0  0  0  0  0  0  0  0  0  0  0  0
  -87.0501   25.4744    2.7187 H   0  0  0  0  0  0  0  0  0  0  0  0
  -86.0321   27.1632    2.0117 C   0  0  0  0  0  0  0  0  0  0  0  0
  -86.1460   28.4341    1.4488 C   0  0  0  0  0  0  0  0  0  0  0  0
  -85.0595   29.2873    1.3691 C   0  0  0  0  0  0  0  0  0  0  0  0
  -85.1626   30.5470    0.8137 C   0  0  0  0  0  0  0  0  0  0  0  0
  -84.0529   31.3577    0.7576 C   0  0  0  0  0  0  0  0  0  0  0  0
  -82.8539   30.9354    1.2424 C   0  0  0  0  0  0  0  0  0  0  0  0
  -82.7467   29.6841    1.7953 C   0  0  0  0  0  0  0  0  0  0  0  0
  -83.8461   28.8701    1.8553 C   0  0  0  0  0  0  0  0  0  0  0  0
  -83.7495   27.6110    2.4088 C   0  0  0  0  0  0  0  0  0  0  0  0
  -82.5279   27.1833    2.9016 O   0  0  0  0  0  0  0  0  0  0  0  0
  -84.8385   26.8378    2.4543 N   0  0  0  0  0  0  0  0  0  0  0  0
  -82.3738   27.2962    3.8923 H   0  0  0  0  0  0  0  0  0  0  0  0
  -89.9089   26.0791   -0.4617 C   0  0  0  0  0  0  0  0  0  0  0  0
  -90.9124   26.6691    0.2614 C   0  0  0  0  0  0  0  0  0  0  0  0
  -90.7057   27.1421    1.5393 C   0  0  0  0  0  0  0  0  0  0  0  0
  -89.4551   27.0269    2.1265 C   0  0  0  0  0  0  0  0  0  0  0  0
  -88.3977   26.4347    1.4353 C   0  0  0  0  0  0  0  0  0  0  0  0
  -88.6567   25.9768    0.1574 C   0  0  0  0  0  0  0  0  0  0  0  0
  -90.3953   26.4182   -2.8481 C   0  0  0  0  0  0  0  0  0  0  0  0
  -90.1280   25.6050   -1.7507 O   0  0  0  0  0  0  0  0  0  0  0  0
  -89.2157   27.4913    3.4061 O   0  0  0  0  0  0  0  0  0  0  0  0
  -90.3149   27.7393    4.2762 C   0  0  0  0  0  0  0  0  0  0  0  0
 21 22  1  0  0  0
 22 15  1  0  0  0
 15 16  2  0  0  0
 16 17  1  0  0  0
 17 18  2  0  0  0
 18 23  1  0  0  0
 23 24  1  0  0  0
 18 19  1  0  0  0
 19  1  1  0  0  0
  1  3  1  0  0  0
  3  4  2  0  0  0
  4  5  1  0  0  0
  5  6  2  0  0  0
  6  7  1  0  0  0
  7  8  2  0  0  0
  8  9  1  0  0  0
  9 10  2  0  0  0
 10 11  1  0  0  0
 11 12  1  0  0  0
 11 13  2  0  0  0
 19 20  2  0  0  0
 20 15  1  0  0  0
 13  3  1  0  0  0
 10  5  1  0  0  0
  1  2  1  0  0  0
 12 14  1  0  0  0
M  END
> <minimizedAffinity>
-8.85764

> <CNNscore>
0.6514478922

> <CNNaffinity>
5.9735636711

> <CNN_VS>
3.8914654255

> <CNNaffinity_variance>
0.0741100982

$$$$
[H]Oc1nc(N([H])c2c([H])c(OC([H])([H])[H])c([H])c([H])c2OC([H])([H])[H])c([H])c2c([H])c([H])c([H])c([H])c12


 24 26  0  0  0  0  0  0  0  0999 V2000
  -87.1111   32.8509   -0.9040 N   0  0  0  0  0  0  0  0  0  0  0  0
  -87.8975   33.0943   -0.1926 H   0  0  0  0  0  0  0  0  0  0  0  0
  -85.9906   32.2410   -0.3467 C   0  0  0  0  0  0  0  0  0  0  0  0
  -86.1448   31.0513    0.3648 C   0  0  0  0  0  0  0  0  0  0  0  0
  -85.0615   30.4079    0.9369 C   0  0  0  0  0  0  0  0  0  0  0  0
  -85.2042   29.2301    1.6428 C   0  0  0  0  0  0  0  0  0  0  0  0
  -84.0961   28.6291    2.1928 C   0  0  0  0  0  0  0  0  0  0  0  0
  -82.8599   29.1792    2.0507 C   0  0  0  0  0  0  0  0  0  0  0  0
  -82.7132   30.3499    1.3498 C   0  0  0  0  0  0  0  0  0  0  0  0
  -83.8108   30.9553    0.7989 C   0  0  0  0  0  0  0  0  0  0  0  0
  -83.6747   32.1317    0.0927 C   0  0  0  0  0  0  0  0  0  0  0  0
  -82.4154   32.6899   -0.0506 O   0  0  0  0  0  0  0  0  0  0  0  0
  -84.7630   32.7009   -0.4342 N   0  0  0  0  0  0  0  0  0  0  0  0
  -81.9199   32.4785   -0.9036 H   0  0  0  0  0  0  0  0  0  0  0  0
  -87.3315   34.7414   -4.1352 C   0  0  0  0  0  0  0  0  0  0  0  0
  -88.0382   33.8224   -4.8660 C   0  0  0  0  0  0  0  0  0  0  0  0
  -88.4360   32.6173   -4.3283 C   0  0  0  0  0  0  0  0  0  0  0  0
  -88.1219   32.3081   -3.0139 C   0  0  0  0  0  0  0  0  0  0  0  0
  -87.4042   33.2073   -2.2246 C   0  0  0  0  0  0  0  0  0  0  0  0
  -87.0290   34.4014   -2.8107 C   0  0  0  0  0  0  0  0  0  0  0  0
  -87.3013   36.3934   -5.9563 C   0  0  0  0  0  0  0  0  0  0  0  0
  -86.9349   35.9547   -4.6873 O   0  0  0  0  0  0  0  0  0  0  0  0
  -88.5063   31.1082   -2.4456 O   0  0  0  0  0  0  0  0  0  0  0  0
  -88.0051   29.8888   -2.9826 C   0  0  0  0  0  0  0  0  0  0  0  0
 21 22  1  0  0  0
 22 15  1  0  0  0
 15 16  2  0  0  0
 16 17  1  0  0  0
 17 18  2  0  0  0
 18 23  1  0  0  0
 23 24  1  0  0  0
 18 19  1  0  0  0
 19  1  1  0  0  0
  1  3  1  0  0  0
  3  4  2  0  0  0
  4  5  1  0  0  0
  5  6  2  0  0  0
  6  7  1  0  0  0
  7  8  2  0  0  0
  8  9  1  0  0  0
  9 10  2  0  0  0
 10 11  1  0  0  0
 11 12  1  0  0  0
 11 13  2  0  0  0
 19 20  2  0  0  0
 20 15  1  0  0  0
 13  3  1  0  0  0
 10  5  1  0  0  0
  1  2  1  0  0  0
 12 14  1  0  0  0
M  END
> <minimizedAffinity>
-8.77040

> <CNNscore>
0.5351461172

> <CNNaffinity>
5.7421798706

> <CNN_VS>
3.0729053020

> <CNNaffinity_variance>
0.1275848597

$$$$
[H]Oc1nc(N([H])c2c([H])c(OC([H])([H])[H])c([H])c([H])c2OC([H])([H])[H])c([H])c2c([H])c([H])c([H])c([H])c12


 24 26  0  0  0  0  0  0  0  0999 V2000
  -85.9167   31.3644    0.7632 N   0  0  0  0  0  0  0  0  0  0  0  0
  -85.9815   32.2066    1.4489 H   0  0  0  0  0  0  0  0  0  0  0  0
  -86.5246   31.5716   -0.4720 C   0  0  0  0  0  0  0  0  0  0  0  0
  -86.4140   32.8191   -1.0858 C   0  0  0  0  0  0  0  0  0  0  0  0
  -87.0006   33.0732   -2.3130 C   0  0  0  0  0  0  0  0  0  0  0  0
  -86.8965   34.3047   -2.9283 C   0  0  0  0  0  0  0  0  0  0  0  0
  -87.4979   34.5075   -4.1485 C   0  0  0  0  0  0  0  0  0  0  0  0
  -88.1944   33.5107   -4.7586 C   0  0  0  0  0  0  0  0  0  0  0  0
  -88.3004   32.2849   -4.1507 C   0  0  0  0  0  0  0  0  0  0  0  0
  -87.7051   32.0739   -2.9359 C   0  0  0  0  0  0  0  0  0  0  0  0
  -87.8054   30.8462   -2.3164 C   0  0  0  0  0  0  0  0  0  0  0  0
  -88.5149   29.8330   -2.9392 O   0  0  0  0  0  0  0  0  0  0  0  0
  -87.2146   30.6683   -1.1310 N   0  0  0  0  0  0  0  0  0  0  0  0
  -87.9799   29.1723   -3.4824 H   0  0  0  0  0  0  0  0  0  0  0  0
  -85.1138   27.9273    2.0302 C   0  0  0  0  0  0  0  0  0  0  0  0
  -83.7857   28.1144    2.3115 C   0  0  0  0  0  0  0  0  0  0  0  0
  -83.1610   29.3242    2.0973 C   0  0  0  0  0  0  0  0  0  0  0  0
  -83.8792   30.3930    1.5836 C   0  0  0  0  0  0  0  0  0  0  0  0
  -85.2341   30.2578    1.2794 C   0  0  0  0  0  0  0  0  0  0  0  0
  -85.8133   29.0248    1.5125 C   0  0  0  0  0  0  0  0  0  0  0  0
  -87.0735   26.4432    1.9723 C   0  0  0  0  0  0  0  0  0  0  0  0
  -85.7346   26.7024    2.2501 O   0  0  0  0  0  0  0  0  0  0  0  0
  -83.2819   31.6187    1.3575 O   0  0  0  0  0  0  0  0  0  0  0  0
  -82.5208   31.8165    0.1707 C   0  0  0  0  0  0  0  0  0  0  0  0
 21 22  1  0  0  0
 22 15  1  0  0  0
 15 16  2  0  0  0
 16 17  1  0  0  0
 17 18  2  0  0  0
 18 23  1  0  0  0
 23 24  1  0  0  0
 18 19  1  0  0  0
 19  1  1  0  0  0
  1  3  1  0  0  0
  3  4  2  0  0  0
  4  5  1  0  0  0
  5  6  2  0  0  0
  6  7  1  0  0  0
  7  8  2  0  0  0
  8  9  1  0  0  0
  9 10  2  0  0  0
 10 11  1  0  0  0
 11 12  1  0  0  0
 11 13  2  0  0  0
 19 20  2  0  0  0
 20 15  1  0  0  0
 13  3  1  0  0  0
 10  5  1  0  0  0
  1  2  1  0  0  0
 12 14  1  0  0  0
M  END
> <minimizedAffinity>
-8.05256

> <CNNscore>
0.4060082436

> <CNNaffinity>
5.7115216255

> <CNN_VS>
2.3189249039

> <CNNaffinity_variance>
0.1887176931

$$$$
[H]Oc1nc(N([H])c2c([H])c(OC([H])([H])[H])c([H])c([H])c2OC([H])([H])[H])c([H])c2c([H])c([H])c([H])c([H])c12


 24 26  0  0  0  0  0  0  0  0999 V2000
  -86.2699   28.9843    1.5448 N   0  0  0  0  0  0  0  0  0  0  0  0
  -86.4618   28.8908    2.6116 H   0  0  0  0  0  0  0  0  0  0  0  0
  -87.1390   28.2620    0.7317 C   0  0  0  0  0  0  0  0  0  0  0  0
  -88.0085   28.9481   -0.1159 C   0  0  0  0  0  0  0  0  0  0  0  0
  -88.8904   28.2746   -0.9425 C   0  0  0  0  0  0  0  0  0  0  0  0
  -89.7548   28.9450   -1.7848 C   0  0  0  0  0  0  0  0  0  0  0  0
  -90.6127   28.2297   -2.5873 C   0  0  0  0  0  0  0  0  0  0  0  0
  -90.6216   26.8694   -2.5629 C   0  0  0  0  0  0  0  0  0  0  0  0
  -89.7643   26.1988   -1.7272 C   0  0  0  0  0  0  0  0  0  0  0  0
  -88.9067   26.9026   -0.9248 C   0  0  0  0  0  0  0  0  0  0  0  0
  -88.0411   26.2388   -0.0814 C   0  0  0  0  0  0  0  0  0  0  0  0
  -88.0520   24.8541   -0.0583 O   0  0  0  0  0  0  0  0  0  0  0  0
  -87.2151   26.9510    0.6908 N   0  0  0  0  0  0  0  0  0  0  0  0
  -87.3665   24.3855   -0.6314 H   0  0  0  0  0  0  0  0  0  0  0  0
  -84.1802   31.7535    0.1209 C   0  0  0  0  0  0  0  0  0  0  0  0
  -82.9708   31.3993    0.6593 C   0  0  0  0  0  0  0  0  0  0  0  0
  -82.8311   30.2900    1.4652 C   0  0  0  0  0  0  0  0  0  0  0  0
  -83.9329   29.4984    1.7507 C   0  0  0  0  0  0  0  0  0  0  0  0
  -85.1880   29.8130    1.2288 C   0  0  0  0  0  0  0  0  0  0  0  0
  -85.2747   30.9350    0.4267 C   0  0  0  0  0  0  0  0  0  0  0  0
  -85.4756   33.2178   -1.3704 C   0  0  0  0  0  0  0  0  0  0  0  0
  -84.3102   32.8750   -0.6912 O   0  0  0  0  0  0  0  0  0  0  0  0
  -83.8258   28.3797    2.5553 O   0  0  0  0  0  0  0  0  0  0  0  0
  -82.6055   27.6466    2.5734 C   0  0  0  0  0  0  0  0  0  0  0  0
 21 22  1  0  0  0
 22 15  1  0  0  0
 15 16  2  0  0  0
 16 17  1  0  0  0
 17 18  2  0  0  0
 18 23  1  0  0  0
 23 24  1  0  0  0
 18 19  1  0  0  0
 19  1  1  0  0  0
  1  3  1  0  0  0
  3  4  2  0  0  0
  4  5  1  0  0  0
  5  6  2  0  0  0
  6  7  1  0  0  0
  7  8  2  0  0  0
  8  9  1  0  0  0
  9 10  2  0  0  0
 10 11  1  0  0  0
 11 12  1  0  0  0
 11 13  2  0  0  0
 19 20  2  0  0  0
 20 15  1  0  0  0
 13  3  1  0  0  0
 10  5  1  0  0  0
  1  2  1  0  0  0
 12 14  1  0  0  0
M  END
> <minimizedAffinity>
-7.39494

> <CNNscore>
0.3369346261

> <CNNaffinity>
5.9091820717

> <CNN_VS>
1.9910080433

> <CNNaffinity_variance>
0.1792712808

$$$$
[H]Oc1nc(N([H])c2c([H])c(OC([H])([H])[H])c([H])c([H])c2OC([H])([H])[H])c([H])c2c([H])c([H])c([H])c([H])c12


 24 26  0  0  0  0  0  0  0  0999 V2000
  -86.3392   29.0118    0.9337 N   0  0  0  0  0  0  0  0  0  0  0  0
  -86.4679   28.4213    1.8384 H   0  0  0  0  0  0  0  0  0  0  0  0
  -87.3666   28.8825    0.0032 C   0  0  0  0  0  0  0  0  0  0  0  0
  -88.6831   29.1077    0.4052 C   0  0  0  0  0  0  0  0  0  0  0  0
  -89.7378   28.9914   -0.4828 C   0  0  0  0  0  0  0  0  0  0  0  0
  -91.0440   29.2123   -0.0943 C   0  0  0  0  0  0  0  0  0  0  0  0
  -92.0577   29.0840   -1.0150 C   0  0  0  0  0  0  0  0  0  0  0  0
  -91.7912   28.7421   -2.3046 C   0  0  0  0  0  0  0  0  0  0  0  0
  -90.4944   28.5215   -2.6953 C   0  0  0  0  0  0  0  0  0  0  0  0
  -89.4788   28.6470   -1.7856 C   0  0  0  0  0  0  0  0  0  0  0  0
  -88.1722   28.4276   -2.1676 C   0  0  0  0  0  0  0  0  0  0  0  0
  -87.9033   28.0797   -3.4808 O   0  0  0  0  0  0  0  0  0  0  0  0
  -87.2010   28.5569   -1.2589 N   0  0  0  0  0  0  0  0  0  0  0  0
  -87.6373   28.8281   -4.1030 H   0  0  0  0  0  0  0  0  0  0  0  0
  -83.8406   31.7146    0.2161 C   0  0  0  0  0  0  0  0  0  0  0  0
  -82.7801   31.2103    0.9226 C   0  0  0  0  0  0  0  0  0  0  0  0
  -82.8682   30.0228    1.6166 C   0  0  0  0  0  0  0  0  0  0  0  0
  -84.0538   29.3043    1.6118 C   0  0  0  0  0  0  0  0  0  0  0  0
  -85.1648   29.7716    0.9090 C   0  0  0  0  0  0  0  0  0  0  0  0
  -85.0248   30.9670    0.2297 C   0  0  0  0  0  0  0  0  0  0  0  0
  -84.7810   33.4834   -1.2098 C   0  0  0  0  0  0  0  0  0  0  0  0
  -83.7411   32.9140   -0.4809 O   0  0  0  0  0  0  0  0  0  0  0  0
  -84.1741   28.1104    2.2976 O   0  0  0  0  0  0  0  0  0  0  0  0
  -83.0068   27.4825    2.8169 C   0  0  0  0  0  0  0  0  0  0  0  0
 21 22  1  0  0  0
 22 15  1  0  0  0
 15 16  2  0  0  0
 16 17  1  0  0  0
 17 18  2  0  0  0
 18 23  1  0  0  0
 23 24  1  0  0  0
 18 19  1  0  0  0
 19  1  1  0  0  0
  1  3  1  0  0  0
  3  4  2  0  0  0
  4  5  1  0  0  0
  5  6  2  0  0  0
  6  7  1  0  0  0
  7  8  2  0  0  0
  8  9  1  0  0  0
  9 10  2  0  0  0
 10 11  1  0  0  0
 11 12  1  0  0  0
 11 13  2  0  0  0
 19 20  2  0  0  0
 20 15  1  0  0  0
 13  3  1  0  0  0
 10  5  1  0  0  0
  1  2  1  0  0  0
 12 14  1  0  0  0
M  END
> <minimizedAffinity>
-7.41558

> <CNNscore>
0.3338588774

> <CNNaffinity>
5.8445520401

> <CNN_VS>
1.9512555599

> <CNNaffinity_variance>
0.1241049543

$$$$
[H]Oc1nc(N([H])c2c([H])c(OC([H])([H])[H])c([H])c([H])c2OC([H])([H])[H])c([H])c2c([H])c([H])c([H])c([H])c12


 24 26  0  0  0  0  0  0  0  0999 V2000
  -86.8801   31.0636    0.4423 N   0  0  0  0  0  0  0  0  0  0  0  0
  -87.5719   31.2328    1.2648 H   0  0  0  0  0  0  0  0  0  0  0  0
  -87.4220   31.2636   -0.8244 C   0  0  0  0  0  0  0  0  0  0  0  0
  -87.9813   32.5019   -1.1392 C   0  0  0  0  0  0  0  0  0  0  0  0
  -88.5320   32.7486   -2.3844 C   0  0  0  0  0  0  0  0  0  0  0  0
  -89.0878   33.9709   -2.7051 C   0  0  0  0  0  0  0  0  0  0  0  0
  -89.6228   34.1665   -3.9570 C   0  0  0  0  0  0  0  0  0  0  0  0
  -89.6119   33.1715   -4.8849 C   0  0  0  0  0  0  0  0  0  0  0  0
  -89.0605   31.9548   -4.5704 C   0  0  0  0  0  0  0  0  0  0  0  0
  -88.5256   31.7510   -3.3266 C   0  0  0  0  0  0  0  0  0  0  0  0
  -87.9690   30.5325   -3.0003 C   0  0  0  0  0  0  0  0  0  0  0  0
  -87.9591   29.5211   -3.9463 O   0  0  0  0  0  0  0  0  0  0  0  0
  -87.4543   30.3613   -1.7790 N   0  0  0  0  0  0  0  0  0  0  0  0
  -87.1150   29.4158   -4.4889 H   0  0  0  0  0  0  0  0  0  0  0  0
  -84.0182   29.1572    1.9384 C   0  0  0  0  0  0  0  0  0  0  0  0
  -83.0005   30.0103    1.5999 C   0  0  0  0  0  0  0  0  0  0  0  0
  -83.2317   31.1769    0.9034 C   0  0  0  0  0  0  0  0  0  0  0  0
  -84.5225   31.5138    0.5259 C   0  0  0  0  0  0  0  0  0  0  0  0
  -85.5959   30.6815    0.8445 C   0  0  0  0  0  0  0  0  0  0  0  0
  -85.3110   29.5239    1.5438 C   0  0  0  0  0  0  0  0  0  0  0  0
  -82.5188   27.3958    2.7724 C   0  0  0  0  0  0  0  0  0  0  0  0
  -83.7740   27.9824    2.6415 O   0  0  0  0  0  0  0  0  0  0  0  0
  -84.7872   32.6764   -0.1732 O   0  0  0  0  0  0  0  0  0  0  0  0
  -83.7061   33.4243   -0.7196 C   0  0  0  0  0  0  0  0  0  0  0  0
 21 22  1  0  0  0
 22 15  1  0  0  0
 15 16  2  0  0  0
 16 17  1  0  0  0
 17 18  2  0  0  0
 18 23  1  0  0  0
 23 24  1  0  0  0
 18 19  1  0  0  0
 19  1  1  0  0  0
  1  3  1  0  0  0
  3  4  2  0  0  0
  4  5  1  0  0  0
  5  6  2  0  0  0
  6  7  1  0  0  0
  7  8  2  0  0  0
  8  9  1  0  0  0
  9 10  2  0  0  0
 10 11  1  0  0  0
 11 12  1  0  0  0
 11 13  2  0  0  0
 19 20  2  0  0  0
 20 15  1  0  0  0
 13  3  1  0  0  0
 10  5  1  0  0  0
  1  2  1  0  0  0
 12 14  1  0  0  0
M  END
> <minimizedAffinity>
-7.63578

> <CNNscore>
0.3270012438

> <CNNaffinity>
5.5155591965

> <CNN_VS>
1.8035947084

> <CNNaffinity_variance>
0.3082780242

$$$$
[H]Oc1nc(N([H])c2c([H])c(OC([H])([H])[H])c([H])c([H])c2OC([H])([H])[H])c([H])c2c([H])c([H])c([H])c([H])c12


 24 26  0  0  0  0  0  0  0  0999 V2000
  -85.9041   31.5291    0.7716 N   0  0  0  0  0  0  0  0  0  0  0  0
  -86.1441   32.2729    1.5284 H   0  0  0  0  0  0  0  0  0  0  0  0
  -86.4005   31.8101   -0.4984 C   0  0  0  0  0  0  0  0  0  0  0  0
  -87.3593   30.9659   -1.0581 C   0  0  0  0  0  0  0  0  0  0  0  0
  -87.8824   31.2036   -2.3169 C   0  0  0  0  0  0  0  0  0  0  0  0
  -88.8318   30.3737   -2.8790 C   0  0  0  0  0  0  0  0  0  0  0  0
  -89.3208   30.6529   -4.1339 C   0  0  0  0  0  0  0  0  0  0  0  0
  -88.8819   31.7366   -4.8297 C   0  0  0  0  0  0  0  0  0  0  0  0
  -87.9383   32.5642   -4.2749 C   0  0  0  0  0  0  0  0  0  0  0  0
  -87.4458   32.2941   -3.0262 C   0  0  0  0  0  0  0  0  0  0  0  0
  -86.4975   33.1191   -2.4594 C   0  0  0  0  0  0  0  0  0  0  0  0
  -86.0523   34.2215   -3.1696 O   0  0  0  0  0  0  0  0  0  0  0  0
  -86.0342   32.8315   -1.2394 N   0  0  0  0  0  0  0  0  0  0  0  0
  -86.4978   35.1032   -2.9648 H   0  0  0  0  0  0  0  0  0  0  0  0
  -84.8878   28.1320    1.9922 C   0  0  0  0  0  0  0  0  0  0  0  0
  -83.5539   28.3736    2.1926 C   0  0  0  0  0  0  0  0  0  0  0  0
  -82.9927   29.6067    1.9395 C   0  0  0  0  0  0  0  0  0  0  0  0
  -83.7832   30.6437    1.4687 C   0  0  0  0  0  0  0  0  0  0  0  0
  -85.1474   30.4529    1.2471 C   0  0  0  0  0  0  0  0  0  0  0  0
  -85.6611   29.1984    1.5163 C   0  0  0  0  0  0  0  0  0  0  0  0
  -86.7493   26.5268    1.9252 C   0  0  0  0  0  0  0  0  0  0  0  0
  -85.4442   26.8839    2.2508 O   0  0  0  0  0  0  0  0  0  0  0  0
  -83.2507   31.8917    1.2053 O   0  0  0  0  0  0  0  0  0  0  0  0
  -82.6573   32.1442   -0.0638 C   0  0  0  0  0  0  0  0  0  0  0  0
 21 22  1  0  0  0
 22 15  1  0  0  0
 15 16  2  0  0  0
 16 17  1  0  0  0
 17 18  2  0  0  0
 18 23  1  0  0  0
 23 24  1  0  0  0
 18 19  1  0  0  0
 19  1  1  0  0  0
  1  3  1  0  0  0
  3  4  2  0  0  0
  4  5  1  0  0  0
  5  6  2  0  0  0
  6  7  1  0  0  0
  7  8  2  0  0  0
  8  9  1  0  0  0
  9 10  2  0  0  0
 10 11  1  0  0  0
 11 12  1  0  0  0
 11 13  2  0  0  0
 19 20  2  0  0  0
 20 15  1  0  0  0
 13  3  1  0  0  0
 10  5  1  0  0  0
  1  2  1  0  0  0
 12 14  1  0  0  0
M  END
> <minimizedAffinity>
-8.18513

> <CNNscore>
0.3066270053

> <CNNaffinity>
5.6257605553

> <CNN_VS>
1.7250101566

> <CNNaffinity_variance>
0.2305012941

$$$$
[H]Oc1c([H])c2c(c([H])c1O[H])[C@]1([H])c3c(sc(Cl)c3[H])C([H])([H])N([H])[C@@]1([H])C([H])([H])C2([H])[H]


 23 26  0  0  0  0  0  0  0  0999 V2000
  -90.5219   20.6333    0.0704 O   0  0  0  0  0  0  0  0  0  0  0  0
  -90.3869   21.9924    0.2833 C   0  0  0  0  0  0  0  0  0  0  0  0
  -89.7859   22.7459   -0.7110 C   0  0  0  0  0  0  0  0  0  0  0  0
  -89.6461   24.0821   -0.5156 C   0  0  0  0  0  0  0  0  0  0  0  0
  -90.1016   24.6827    0.6705 C   0  0  0  0  0  0  0  0  0  0  0  0
  -90.6928   23.9294    1.6414 C   0  0  0  0  0  0  0  0  0  0  0  0
  -90.8435   22.5495    1.4528 C   0  0  0  0  0  0  0  0  0  0  0  0
  -91.4351   21.7357    2.4041 O   0  0  0  0  0  0  0  0  0  0  0  0
  -89.8555   26.1385    0.6931 C   0  0  0  0  0  0  0  0  0  0  0  0
  -90.1566   26.8312    1.9669 C   0  0  0  0  0  0  0  0  0  0  0  0
  -89.7676   26.4272    3.2137 C   0  0  0  0  0  0  0  0  0  0  0  0
  -90.1411   27.2071    4.2605 C   0  0  0  0  0  0  0  0  0  0  0  0
  -89.8005   26.9586    5.9686 Cl  0  0  0  0  0  0  0  0  0  0  0  0
  -91.0116   28.4714    3.5235 S   0  0  0  0  0  0  0  0  0  0  0  0
  -90.8822   27.9833    1.9049 C   0  0  0  0  0  0  0  0  0  0  0  0
  -91.3741   28.5974    0.6323 C   0  0  0  0  0  0  0  0  0  0  0  0
  -90.4921   28.1479   -0.4398 N   0  0  0  0  0  0  0  0  0  0  0  0
  -90.5715   26.7076   -0.4729 C   0  0  0  0  0  0  0  0  0  0  0  0
  -90.0092   26.1466   -1.7665 C   0  0  0  0  0  0  0  0  0  0  0  0
  -89.0395   24.9991   -1.5268 C   0  0  0  0  0  0  0  0  0  0  0  0
  -90.1974   20.1910   -0.7778 H   0  0  0  0  0  0  0  0  0  0  0  0
  -91.7922   22.0584    3.2772 H   0  0  0  0  0  0  0  0  0  0  0  0
  -90.7934   28.6087   -1.3135 H   0  0  0  0  0  0  0  0  0  0  0  0
  1  2  1  0  0  0
  2  3  2  0  0  0
  3  4  1  0  0  0
  4  5  2  0  0  0
  5  6  1  0  0  0
  6  7  2  0  0  0
  7  8  1  0  0  0
  5  9  1  0  0  0
  9 10  1  0  0  0
 10 11  1  0  0  0
 11 12  2  0  0  0
 12 13  1  0  0  0
 12 14  1  0  0  0
 14 15  1  0  0  0
 15 16  1  0  0  0
 16 17  1  0  0  0
 17 18  1  0  0  0
 18 19  1  0  0  0
 19 20  1  0  0  0
  7  2  1  0  0  0
 18  9  1  0  0  0
 20  4  1  0  0  0
 15 10  2  0  0  0
  1 21  1  0  0  0
  8 22  1  0  0  0
 17 23  1  0  0  0
M  END
> <minimizedAffinity>
-6.74092

> <CNNscore>
0.6284298897

> <CNNaffinity>
5.4979314804

> <CNN_VS>
3.4550645351

> <CNNaffinity_variance>
0.0878230035

$$$$
[H]Oc1c([H])c2c(c([H])c1O[H])[C@]1([H])c3c(sc(Cl)c3[H])C([H])([H])N([H])[C@@]1([H])C([H])([H])C2([H])[H]


 23 26  0  0  0  0  0  0  0  0999 V2000
  -87.4730   32.8882   -2.0534 O   0  0  0  0  0  0  0  0  0  0  0  0
  -88.3555   31.9201   -1.6122 C   0  0  0  0  0  0  0  0  0  0  0  0
  -89.5749   31.8137   -2.2598 C   0  0  0  0  0  0  0  0  0  0  0  0
  -90.4520   30.8675   -1.8371 C   0  0  0  0  0  0  0  0  0  0  0  0
  -90.1263   30.0181   -0.7659 C   0  0  0  0  0  0  0  0  0  0  0  0
  -88.9214   30.1326   -0.1375 C   0  0  0  0  0  0  0  0  0  0  0  0
  -88.0069   31.1045   -0.5635 C   0  0  0  0  0  0  0  0  0  0  0  0
  -86.7700   31.2665    0.0375 O   0  0  0  0  0  0  0  0  0  0  0  0
  -91.2095   29.0634   -0.4569 C   0  0  0  0  0  0  0  0  0  0  0  0
  -91.0226   28.2354    0.7566 C   0  0  0  0  0  0  0  0  0  0  0  0
  -90.6420   28.6887    1.9890 C   0  0  0  0  0  0  0  0  0  0  0  0
  -90.5319   27.7668    2.9796 C   0  0  0  0  0  0  0  0  0  0  0  0
  -90.0665   28.0320    4.6555 Cl  0  0  0  0  0  0  0  0  0  0  0  0
  -90.9495   26.3058    2.2111 S   0  0  0  0  0  0  0  0  0  0  0  0
  -91.2547   26.8965    0.6514 C   0  0  0  0  0  0  0  0  0  0  0  0
  -91.7030   26.2190   -0.6050 C   0  0  0  0  0  0  0  0  0  0  0  0
  -92.3889   27.2170   -1.4192 N   0  0  0  0  0  0  0  0  0  0  0  0
  -91.4367   28.2676   -1.6862 C   0  0  0  0  0  0  0  0  0  0  0  0
  -91.8976   29.1643   -2.8211 C   0  0  0  0  0  0  0  0  0  0  0  0
  -91.7837   30.6414   -2.4748 C   0  0  0  0  0  0  0  0  0  0  0  0
  -87.6970   33.5045   -2.8216 H   0  0  0  0  0  0  0  0  0  0  0  0
  -86.4396   30.7184    0.8019 H   0  0  0  0  0  0  0  0  0  0  0  0
  -92.7472   26.7454   -2.2652 H   0  0  0  0  0  0  0  0  0  0  0  0
  1  2  1  0  0  0
  2  3  2  0  0  0
  3  4  1  0  0  0
  4  5  2  0  0  0
  5  6  1  0  0  0
  6  7  2  0  0  0
  7  8  1  0  0  0
  5  9  1  0  0  0
  9 10  1  0  0  0
 10 11  1  0  0  0
 11 12  2  0  0  0
 12 13  1  0  0  0
 12 14  1  0  0  0
 14 15  1  0  0  0
 15 16  1  0  0  0
 16 17  1  0  0  0
 17 18  1  0  0  0
 18 19  1  0  0  0
 19 20  1  0  0  0
  7  2  1  0  0  0
 18  9  1  0  0  0
 20  4  1  0  0  0
 15 10  2  0  0  0
  1 21  1  0  0  0
  8 22  1  0  0  0
 17 23  1  0  0  0
M  END
> <minimizedAffinity>
-5.92924

> <CNNscore>
0.5346986651

> <CNNaffinity>
5.1912050247

> <CNN_VS>
2.7757303715

> <CNNaffinity_variance>
0.1337252259

$$$$
[H]Oc1c([H])c2c(c([H])c1O[H])[C@]1([H])c3c(sc(Cl)c3[H])C([H])([H])N([H])[C@@]1([H])C([H])([H])C2([H])[H]


 23 26  0  0  0  0  0  0  0  0999 V2000
  -85.1327   26.5985    2.4100 O   0  0  0  0  0  0  0  0  0  0  0  0
  -85.3801   27.8370    1.8483 C   0  0  0  0  0  0  0  0  0  0  0  0
  -84.7519   28.9374    2.4072 C   0  0  0  0  0  0  0  0  0  0  0  0
  -84.9858   30.1604    1.8661 C   0  0  0  0  0  0  0  0  0  0  0  0
  -85.8471   30.3022    0.7647 C   0  0  0  0  0  0  0  0  0  0  0  0
  -86.4586   29.2102    0.2231 C   0  0  0  0  0  0  0  0  0  0  0  0
  -86.2260   27.9423    0.7713 C   0  0  0  0  0  0  0  0  0  0  0  0
  -86.8200   26.7993    0.2632 O   0  0  0  0  0  0  0  0  0  0  0  0
  -85.9727   31.7070    0.3273 C   0  0  0  0  0  0  0  0  0  0  0  0
  -86.9806   31.9751   -0.7240 C   0  0  0  0  0  0  0  0  0  0  0  0
  -88.2719   31.5262   -0.7335 C   0  0  0  0  0  0  0  0  0  0  0  0
  -89.0440   31.8879   -1.7902 C   0  0  0  0  0  0  0  0  0  0  0  0
  -90.7274   31.4736   -2.0902 Cl  0  0  0  0  0  0  0  0  0  0  0  0
  -87.9952   32.8302   -2.7448 S   0  0  0  0  0  0  0  0  0  0  0  0
  -86.6016   32.7451   -1.7828 C   0  0  0  0  0  0  0  0  0  0  0  0
  -85.2412   33.3485   -1.9368 C   0  0  0  0  0  0  0  0  0  0  0  0
  -84.6703   33.4870   -0.6011 N   0  0  0  0  0  0  0  0  0  0  0  0
  -84.6089   32.1628   -0.0312 C   0  0  0  0  0  0  0  0  0  0  0  0
  -83.6983   32.1185    1.1825 C   0  0  0  0  0  0  0  0  0  0  0  0
  -84.3446   31.4137    2.3658 C   0  0  0  0  0  0  0  0  0  0  0  0
  -84.5163   26.4851    3.2022 H   0  0  0  0  0  0  0  0  0  0  0  0
  -87.4445   26.7875   -0.5137 H   0  0  0  0  0  0  0  0  0  0  0  0
  -83.7523   33.9507   -0.6942 H   0  0  0  0  0  0  0  0  0  0  0  0
  1  2  1  0  0  0
  2  3  2  0  0  0
  3  4  1  0  0  0
  4  5  2  0  0  0
  5  6  1  0  0  0
  6  7  2  0  0  0
  7  8  1  0  0  0
  5  9  1  0  0  0
  9 10  1  0  0  0
 10 11  1  0  0  0
 11 12  2  0  0  0
 12 13  1  0  0  0
 12 14  1  0  0  0
 14 15  1  0  0  0
 15 16  1  0  0  0
 16 17  1  0  0  0
 17 18  1  0  0  0
 18 19  1  0  0  0
 19 20  1  0  0  0
  7  2  1  0  0  0
 18  9  1  0  0  0
 20  4  1  0  0  0
 15 10  2  0  0  0
  1 21  1  0  0  0
  8 22  1  0  0  0
 17 23  1  0  0  0
M  END
> <minimizedAffinity>
-8.55685

> <CNNscore>
0.5047044754

> <CNNaffinity>
6.1665658951

> <CNN_VS>
3.1122934818

> <CNNaffinity_variance>
0.1409052163

$$$$
[H]Oc1c([H])c2c(c([H])c1O[H])[C@]1([H])c3c(sc(Cl)c3[H])C([H])([H])N([H])[C@@]1([H])C([H])([H])C2([H])[H]


 23 26  0  0  0  0  0  0  0  0999 V2000
  -89.5725   26.9662   -2.8481 O   0  0  0  0  0  0  0  0  0  0  0  0
  -88.6965   27.4770   -1.9087 C   0  0  0  0  0  0  0  0  0  0  0  0
  -88.8482   27.0688   -0.5942 C   0  0  0  0  0  0  0  0  0  0  0  0
  -87.9952   27.5626    0.3396 C   0  0  0  0  0  0  0  0  0  0  0  0
  -86.9835   28.4678   -0.0237 C   0  0  0  0  0  0  0  0  0  0  0  0
  -86.8443   28.8609   -1.3221 C   0  0  0  0  0  0  0  0  0  0  0  0
  -87.7174   28.3591   -2.2958 C   0  0  0  0  0  0  0  0  0  0  0  0
  -87.6235   28.7236   -3.6283 O   0  0  0  0  0  0  0  0  0  0  0  0
  -86.1660   28.8894    1.1315 C   0  0  0  0  0  0  0  0  0  0  0  0
  -85.1781   29.9623    0.8745 C   0  0  0  0  0  0  0  0  0  0  0  0
  -85.4179   31.1352    0.2142 C   0  0  0  0  0  0  0  0  0  0  0  0
  -84.3761   31.9964    0.0864 C   0  0  0  0  0  0  0  0  0  0  0  0
  -84.3648   33.5689   -0.7027 Cl  0  0  0  0  0  0  0  0  0  0  0  0
  -83.0959   31.1904    0.8680 S   0  0  0  0  0  0  0  0  0  0  0  0
  -83.9101   29.7800    1.3397 C   0  0  0  0  0  0  0  0  0  0  0  0
  -83.4630   28.5759    2.1070 C   0  0  0  0  0  0  0  0  0  0  0  0
  -84.6417   28.0046    2.7502 N   0  0  0  0  0  0  0  0  0  0  0  0
  -85.5674   27.6582    1.6990 C   0  0  0  0  0  0  0  0  0  0  0  0
  -86.6529   26.7211    2.1967 C   0  0  0  0  0  0  0  0  0  0  0  0
  -88.0445   27.1744    1.7812 C   0  0  0  0  0  0  0  0  0  0  0  0
  -90.3037   26.3158   -2.5980 H   0  0  0  0  0  0  0  0  0  0  0  0
  -86.9443   29.3561   -3.9922 H   0  0  0  0  0  0  0  0  0  0  0  0
  -84.3337   27.2032    3.3241 H   0  0  0  0  0  0  0  0  0  0  0  0
  1  2  1  0  0  0
  2  3  2  0  0  0
  3  4  1  0  0  0
  4  5  2  0  0  0
  5  6  1  0  0  0
  6  7  2  0  0  0
  7  8  1  0  0  0
  5  9  1  0  0  0
  9 10  1  0  0  0
 10 11  1  0  0  0
 11 12  2  0  0  0
 12 13  1  0  0  0
 12 14  1  0  0  0
 14 15  1  0  0  0
 15 16  1  0  0  0
 16 17  1  0  0  0
 17 18  1  0  0  0
 18 19  1  0  0  0
 19 20  1  0  0  0
  7  2  1  0  0  0
 18  9  1  0  0  0
 20  4  1  0  0  0
 15 10  2  0  0  0
  1 21  1  0  0  0
  8 22  1  0  0  0
 17 23  1  0  0  0
M  END
> <minimizedAffinity>
-9.01775

> <CNNscore>
0.4642391801

> <CNNaffinity>
6.0899357796

> <CNN_VS>
2.8271868229

> <CNNaffinity_variance>
0.0190521218

$$$$
[H]Oc1c([H])c2c(c([H])c1O[H])[C@]1([H])c3c(sc(Cl)c3[H])C([H])([H])N([H])[C@@]1([H])C([H])([H])C2([H])[H]


 23 26  0  0  0  0  0  0  0  0999 V2000
  -88.6780   34.8599   -4.6122 O   0  0  0  0  0  0  0  0  0  0  0  0
  -88.5220   33.8103   -3.7264 C   0  0  0  0  0  0  0  0  0  0  0  0
  -89.6398   33.0534   -3.4178 C   0  0  0  0  0  0  0  0  0  0  0  0
  -89.5017   32.0194   -2.5489 C   0  0  0  0  0  0  0  0  0  0  0  0
  -88.2514   31.7278   -1.9773 C   0  0  0  0  0  0  0  0  0  0  0  0
  -87.1582   32.4804   -2.2906 C   0  0  0  0  0  0  0  0  0  0  0  0
  -87.2864   33.5502   -3.1858 C   0  0  0  0  0  0  0  0  0  0  0  0
  -86.2115   34.3482   -3.5396 O   0  0  0  0  0  0  0  0  0  0  0  0
  -88.3094   30.5728   -1.0591 C   0  0  0  0  0  0  0  0  0  0  0  0
  -87.0769   30.2897   -0.2885 C   0  0  0  0  0  0  0  0  0  0  0  0
  -86.3329   31.2045    0.4035 C   0  0  0  0  0  0  0  0  0  0  0  0
  -85.2343   30.7424    1.0539 C   0  0  0  0  0  0  0  0  0  0  0  0
  -84.0850   31.6599    2.0199 Cl  0  0  0  0  0  0  0  0  0  0  0  0
  -85.2402   29.0750    0.7091 S   0  0  0  0  0  0  0  0  0  0  0  0
  -86.6354   29.0008   -0.2514 C   0  0  0  0  0  0  0  0  0  0  0  0
  -87.3280   27.8573   -0.9231 C   0  0  0  0  0  0  0  0  0  0  0  0
  -88.7352   28.2180   -1.0607 N   0  0  0  0  0  0  0  0  0  0  0  0
  -88.7847   29.4191   -1.8587 C   0  0  0  0  0  0  0  0  0  0  0  0
  -90.1830   29.6808   -2.3884 C   0  0  0  0  0  0  0  0  0  0  0  0
  -90.6284   31.1179   -2.1624 C   0  0  0  0  0  0  0  0  0  0  0  0
  -89.5719   35.0790   -5.0283 H   0  0  0  0  0  0  0  0  0  0  0  0
  -85.2840   34.2284   -3.1944 H   0  0  0  0  0  0  0  0  0  0  0  0
  -89.2306   27.4129   -1.4765 H   0  0  0  0  0  0  0  0  0  0  0  0
  1  2  1  0  0  0
  2  3  2  0  0  0
  3  4  1  0  0  0
  4  5  2  0  0  0
  5  6  1  0  0  0
  6  7  2  0  0  0
  7  8  1  0  0  0
  5  9  1  0  0  0
  9 10  1  0  0  0
 10 11  1  0  0  0
 11 12  2  0  0  0
 12 13  1  0  0  0
 12 14  1  0  0  0
 14 15  1  0  0  0
 15 16  1  0  0  0
 16 17  1  0  0  0
 17 18  1  0  0  0
 18 19  1  0  0  0
 19 20  1  0  0  0
  7  2  1  0  0  0
 18  9  1  0  0  0
 20  4  1  0  0  0
 15 10  2  0  0  0
  1 21  1  0  0  0
  8 22  1  0  0  0
 17 23  1  0  0  0
M  END
> <minimizedAffinity>
-7.33114

> <CNNscore>
0.3615173697

> <CNNaffinity>
5.5874586105

> <CNN_VS>
2.0199632645

> <CNNaffinity_variance>
0.1271552891

$$$$
[H]Oc1c([H])c2c(c([H])c1O[H])[C@]1([H])c3c(sc(Cl)c3[H])C([H])([H])N([H])[C@@]1([H])C([H])([H])C2([H])[H]


 23 26  0  0  0  0  0  0  0  0999 V2000
  -87.4764   25.2755    0.2823 O   0  0  0  0  0  0  0  0  0  0  0  0
  -87.0330   26.5816    0.3736 C   0  0  0  0  0  0  0  0  0  0  0  0
  -86.2834   26.9337    1.4834 C   0  0  0  0  0  0  0  0  0  0  0  0
  -85.8414   28.2132    1.5868 C   0  0  0  0  0  0  0  0  0  0  0  0
  -86.1408   29.1559    0.5885 C   0  0  0  0  0  0  0  0  0  0  0  0
  -86.8790   28.7959   -0.5002 C   0  0  0  0  0  0  0  0  0  0  0  0
  -87.3414   27.4789   -0.6196 C   0  0  0  0  0  0  0  0  0  0  0  0
  -88.0952   27.0576   -1.7019 O   0  0  0  0  0  0  0  0  0  0  0  0
  -85.5751   30.4871    0.8855 C   0  0  0  0  0  0  0  0  0  0  0  0
  -85.9714   31.5829   -0.0284 C   0  0  0  0  0  0  0  0  0  0  0  0
  -87.2440   31.8667   -0.4396 C   0  0  0  0  0  0  0  0  0  0  0  0
  -87.4013   32.9224   -1.2788 C   0  0  0  0  0  0  0  0  0  0  0  0
  -88.8956   33.5336   -1.9780 Cl  0  0  0  0  0  0  0  0  0  0  0  0
  -85.8146   33.5039   -1.4877 S   0  0  0  0  0  0  0  0  0  0  0  0
  -84.9875   32.3960   -0.5062 C   0  0  0  0  0  0  0  0  0  0  0  0
  -83.5407   32.2607   -0.1498 C   0  0  0  0  0  0  0  0  0  0  0  0
  -83.4700   31.5948    1.1466 N   0  0  0  0  0  0  0  0  0  0  0  0
  -84.1078   30.3096    0.9940 C   0  0  0  0  0  0  0  0  0  0  0  0
  -83.7696   29.3779    2.1437 C   0  0  0  0  0  0  0  0  0  0  0  0
  -85.0032   28.7013    2.7228 C   0  0  0  0  0  0  0  0  0  0  0  0
  -87.2679   24.5900    0.9943 H   0  0  0  0  0  0  0  0  0  0  0  0
  -88.3624   27.6428   -2.4635 H   0  0  0  0  0  0  0  0  0  0  0  0
  -82.4766   31.5440    1.4242 H   0  0  0  0  0  0  0  0  0  0  0  0
  1  2  1  0  0  0
  2  3  2  0  0  0
  3  4  1  0  0  0
  4  5  2  0  0  0
  5  6  1  0  0  0
  6  7  2  0  0  0
  7  8  1  0  0  0
  5  9  1  0  0  0
  9 10  1  0  0  0
 10 11  1  0  0  0
 11 12  2  0  0  0
 12 13  1  0  0  0
 12 14  1  0  0  0
 14 15  1  0  0  0
 15 16  1  0  0  0
 16 17  1  0  0  0
 17 18  1  0  0  0
 18 19  1  0  0  0
 19 20  1  0  0  0
  7  2  1  0  0  0
 18  9  1  0  0  0
 20  4  1  0  0  0
 15 10  2  0  0  0
  1 21  1  0  0  0
  8 22  1  0  0  0
 17 23  1  0  0  0
M  END
> <minimizedAffinity>
-9.82122

> <CNNscore>
0.3560774028

> <CNNaffinity>
5.8569540977

> <CNN_VS>
2.0855290890

> <CNNaffinity_variance>
0.1903013289

$$$$
[H]Oc1c([H])c2c(c([H])c1O[H])[C@]1([H])c3c(sc(Cl)c3[H])C([H])([H])N([H])[C@@]1([H])C([H])([H])C2([H])[H]


 23 26  0  0  0  0  0  0  0  0999 V2000
  -84.0369   32.8991   -0.1250 O   0  0  0  0  0  0  0  0  0  0  0  0
  -85.3402   32.5696   -0.4468 C   0  0  0  0  0  0  0  0  0  0  0  0
  -86.0584   33.4606   -1.2266 C   0  0  0  0  0  0  0  0  0  0  0  0
  -87.3400   33.1504   -1.5503 C   0  0  0  0  0  0  0  0  0  0  0  0
  -87.9208   31.9520   -1.1014 C   0  0  0  0  0  0  0  0  0  0  0  0
  -87.2021   31.0827   -0.3350 C   0  0  0  0  0  0  0  0  0  0  0  0
  -85.8787   31.3901    0.0063 C   0  0  0  0  0  0  0  0  0  0  0  0
  -85.1024   30.5457    0.7820 O   0  0  0  0  0  0  0  0  0  0  0  0
  -89.3178   31.8008   -1.5551 C   0  0  0  0  0  0  0  0  0  0  0  0
  -90.0624   30.6470   -1.0005 C   0  0  0  0  0  0  0  0  0  0  0  0
  -90.1184   30.2836    0.3162 C   0  0  0  0  0  0  0  0  0  0  0  0
  -90.8642   29.1919    0.6248 C   0  0  0  0  0  0  0  0  0  0  0  0
  -91.1307   28.4785    2.2108 Cl  0  0  0  0  0  0  0  0  0  0  0  0
  -91.4719   28.6865   -0.8834 S   0  0  0  0  0  0  0  0  0  0  0  0
  -90.7673   29.8708   -1.8713 C   0  0  0  0  0  0  0  0  0  0  0  0
  -90.8493   30.1238   -3.3436 C   0  0  0  0  0  0  0  0  0  0  0  0
  -90.6036   31.5462   -3.5573 N   0  0  0  0  0  0  0  0  0  0  0  0
  -89.2878   31.8280   -3.0365 C   0  0  0  0  0  0  0  0  0  0  0  0
  -88.7650   33.1642   -3.5322 C   0  0  0  0  0  0  0  0  0  0  0  0
  -88.2019   34.0192   -2.4068 C   0  0  0  0  0  0  0  0  0  0  0  0
  -83.6097   33.7580   -0.4413 H   0  0  0  0  0  0  0  0  0  0  0  0
  -85.4150   29.6737    1.1502 H   0  0  0  0  0  0  0  0  0  0  0  0
  -90.7097   31.7391   -4.5662 H   0  0  0  0  0  0  0  0  0  0  0  0
  1  2  1  0  0  0
  2  3  2  0  0  0
  3  4  1  0  0  0
  4  5  2  0  0  0
  5  6  1  0  0  0
  6  7  2  0  0  0
  7  8  1  0  0  0
  5  9  1  0  0  0
  9 10  1  0  0  0
 10 11  1  0  0  0
 11 12  2  0  0  0
 12 13  1  0  0  0
 12 14  1  0  0  0
 14 15  1  0  0  0
 15 16  1  0  0  0
 16 17  1  0  0  0
 17 18  1  0  0  0
 18 19  1  0  0  0
 19 20  1  0  0  0
  7  2  1  0  0  0
 18  9  1  0  0  0
 20  4  1  0  0  0
 15 10  2  0  0  0
  1 21  1  0  0  0
  8 22  1  0  0  0
 17 23  1  0  0  0
M  END
> <minimizedAffinity>
-7.36846

> <CNNscore>
0.3518290818

> <CNNaffinity>
5.3836355209

> <CNN_VS>
1.8941195011

> <CNNaffinity_variance>
0.0892885923

$$$$
[H]Oc1c([H])c2c(c([H])c1O[H])[C@]1([H])c3c(sc(Cl)c3[H])C([H])([H])N([H])[C@@]1([H])C([H])([H])C2([H])[H]


 23 26  0  0  0  0  0  0  0  0999 V2000
  -82.7968   29.7881    1.7280 O   0  0  0  0  0  0  0  0  0  0  0  0
  -84.0784   29.3453    1.4594 C   0  0  0  0  0  0  0  0  0  0  0  0
  -84.7640   29.9447    0.4161 C   0  0  0  0  0  0  0  0  0  0  0  0
  -86.0239   29.5203    0.1409 C   0  0  0  0  0  0  0  0  0  0  0  0
  -86.6155   28.4966    0.9004 C   0  0  0  0  0  0  0  0  0  0  0  0
  -85.9290   27.9138    1.9246 C   0  0  0  0  0  0  0  0  0  0  0  0
  -84.6281   28.3419    2.2193 C   0  0  0  0  0  0  0  0  0  0  0  0
  -83.8847   27.7872    3.2475 O   0  0  0  0  0  0  0  0  0  0  0  0
  -87.9856   28.1821    0.4484 C   0  0  0  0  0  0  0  0  0  0  0  0
  -88.7466   27.2285    1.2878 C   0  0  0  0  0  0  0  0  0  0  0  0
  -88.8671   27.2735    2.6489 C   0  0  0  0  0  0  0  0  0  0  0  0
  -89.6172   26.3055    3.2351 C   0  0  0  0  0  0  0  0  0  0  0  0
  -89.9584   26.0918    4.9479 Cl  0  0  0  0  0  0  0  0  0  0  0  0
  -90.1410   25.3579    1.9209 S   0  0  0  0  0  0  0  0  0  0  0  0
  -89.3978   26.2104    0.6577 C   0  0  0  0  0  0  0  0  0  0  0  0
  -89.4058   26.0102   -0.8250 C   0  0  0  0  0  0  0  0  0  0  0  0
  -89.1633   27.3096   -1.4431 N   0  0  0  0  0  0  0  0  0  0  0  0
  -87.8791   27.7666   -0.9701 C   0  0  0  0  0  0  0  0  0  0  0  0
  -87.3445   28.9064   -1.8182 C   0  0  0  0  0  0  0  0  0  0  0  0
  -86.8489   30.0721   -0.9756 C   0  0  0  0  0  0  0  0  0  0  0  0
  -82.3623   30.5237    1.1892 H   0  0  0  0  0  0  0  0  0  0  0  0
  -84.2075   27.0574    3.8449 H   0  0  0  0  0  0  0  0  0  0  0  0
  -89.2190   27.1898   -2.4674 H   0  0  0  0  0  0  0  0  0  0  0  0
  1  2  1  0  0  0
  2  3  2  0  0  0
  3  4  1  0  0  0
  4  5  2  0  0  0
  5  6  1  0  0  0
  6  7  2  0  0  0
  7  8  1  0  0  0
  5  9  1  0  0  0
  9 10  1  0  0  0
 10 11  1  0  0  0
 11 12  2  0  0  0
 12 13  1  0  0  0
 12 14  1  0  0  0
 14 15  1  0  0  0
 15 16  1  0  0  0
 16 17  1  0  0  0
 17 18  1  0  0  0
 18 19  1  0  0  0
 19 20  1  0  0  0
  7  2  1  0  0  0
 18  9  1  0  0  0
 20  4  1  0  0  0
 15 10  2  0  0  0
  1 21  1  0  0  0
  8 22  1  0  0  0
 17 23  1  0  0  0
M  END
> <minimizedAffinity>
-8.56441

> <CNNscore>
0.3465405703

> <CNNaffinity>
5.7623167038

> <CNN_VS>
1.9968764782

> <CNNaffinity_variance>
0.2120935470

$$$$
[H]Oc1c([H])c2c(c([H])c1O[H])[C@]1([H])c3c(sc(Cl)c3[H])C([H])([H])N([H])[C@@]1([H])C([H])([H])C2([H])[H]


 23 26  0  0  0  0  0  0  0  0999 V2000
  -90.4360   30.3688   -4.7289 O   0  0  0  0  0  0  0  0  0  0  0  0
  -89.7357   30.2259   -3.5458 C   0  0  0  0  0  0  0  0  0  0  0  0
  -90.4530   29.9105   -2.4040 C   0  0  0  0  0  0  0  0  0  0  0  0
  -89.7785   29.7674   -1.2345 C   0  0  0  0  0  0  0  0  0  0  0  0
  -88.3842   29.9371   -1.1879 C   0  0  0  0  0  0  0  0  0  0  0  0
  -87.6895   30.2465   -2.3199 C   0  0  0  0  0  0  0  0  0  0  0  0
  -88.3729   30.3970   -3.5334 C   0  0  0  0  0  0  0  0  0  0  0  0
  -87.7197   30.7112   -4.7132 O   0  0  0  0  0  0  0  0  0  0  0  0
  -87.8402   29.7438    0.1712 C   0  0  0  0  0  0  0  0  0  0  0  0
  -86.4040   30.0579    0.3496 C   0  0  0  0  0  0  0  0  0  0  0  0
  -85.7673   31.1865   -0.0863 C   0  0  0  0  0  0  0  0  0  0  0  0
  -84.4405   31.2903    0.1825 C   0  0  0  0  0  0  0  0  0  0  0  0
  -83.3516   32.6054   -0.2424 Cl  0  0  0  0  0  0  0  0  0  0  0  0
  -84.0913   29.8508    1.0223 S   0  0  0  0  0  0  0  0  0  0  0  0
  -85.6351   29.1498    1.0142 C   0  0  0  0  0  0  0  0  0  0  0  0
  -86.1558   27.8700    1.5881 C   0  0  0  0  0  0  0  0  0  0  0  0
  -87.5804   28.0534    1.8450 N   0  0  0  0  0  0  0  0  0  0  0  0
  -88.1987   28.3649    0.5791 C   0  0  0  0  0  0  0  0  0  0  0  0
  -89.7070   28.2047    0.6395 C   0  0  0  0  0  0  0  0  0  0  0  0
  -90.4404   29.4021    0.0538 C   0  0  0  0  0  0  0  0  0  0  0  0
  -91.4381   30.2500   -4.7737 H   0  0  0  0  0  0  0  0  0  0  0  0
  -86.7359   30.8518   -4.7915 H   0  0  0  0  0  0  0  0  0  0  0  0
  -87.9368   27.1921    2.2896 H   0  0  0  0  0  0  0  0  0  0  0  0
  1  2  1  0  0  0
  2  3  2  0  0  0
  3  4  1  0  0  0
  4  5  2  0  0  0
  5  6  1  0  0  0
  6  7  2  0  0  0
  7  8  1  0  0  0
  5  9  1  0  0  0
  9 10  1  0  0  0
 10 11  1  0  0  0
 11 12  2  0  0  0
 12 13  1  0  0  0
 12 14  1  0  0  0
 14 15  1  0  0  0
 15 16  1  0  0  0
 16 17  1  0  0  0
 17 18  1  0  0  0
 18 19  1  0  0  0
 19 20  1  0  0  0
  7  2  1  0  0  0
 18  9  1  0  0  0
 20  4  1  0  0  0
 15 10  2  0  0  0
  1 21  1  0  0  0
  8 22  1  0  0  0
 17 23  1  0  0  0
M  END
> <minimizedAffinity>
-7.95306

> <CNNscore>
0.2583943605

> <CNNaffinity>
5.7685446739

> <CNN_VS>
1.4905594587

> <CNNaffinity_variance>
0.1694278717

$$$$
[H]c1c(-c2c([H])c([H])c([H])c(C([H])([H])n3nc(-c4c([H])c(F)c([H])c(F)c4[H])c([H])c([H])c3=O)c2[H])nnc(C([H])([H])[H])c1[H]


 29 32  0  0  0  0  0  0  0  0999 V2000
  -85.0174   28.6678    1.5219 N   0  0  0  0  0  0  0  0  0  0  0  0
  -85.9857   29.0180    0.6803 N   0  0  0  0  0  0  0  0  0  0  0  0
  -86.9879   28.2041    0.2943 C   0  0  0  0  0  0  0  0  0  0  0  0
  -87.0166   26.9210    0.8024 C   0  0  0  0  0  0  0  0  0  0  0  0
  -86.0272   26.5183    1.6807 C   0  0  0  0  0  0  0  0  0  0  0  0
  -85.0276   27.4244    2.0268 C   0  0  0  0  0  0  0  0  0  0  0  0
  -84.1103   27.1236    2.8102 O   0  0  0  0  0  0  0  0  0  0  0  0
  -88.0072   28.6958   -0.6422 C   0  0  0  0  0  0  0  0  0  0  0  0
  -89.3455   28.7476   -0.3728 C   0  0  0  0  0  0  0  0  0  0  0  0
  -90.2627   29.2265   -1.3074 C   0  0  0  0  0  0  0  0  0  0  0  0
  -91.5767   29.2682   -1.0196 F   0  0  0  0  0  0  0  0  0  0  0  0
  -89.8492   29.6667   -2.5428 C   0  0  0  0  0  0  0  0  0  0  0  0
  -88.5016   29.6182   -2.8237 C   0  0  0  0  0  0  0  0  0  0  0  0
  -88.0911   30.0505   -4.0381 F   0  0  0  0  0  0  0  0  0  0  0  0
  -87.6060   29.1422   -1.8895 C   0  0  0  0  0  0  0  0  0  0  0  0
  -84.0304   29.6537    1.8345 C   0  0  0  0  0  0  0  0  0  0  0  0
  -85.0917   32.4076   -0.4814 C   0  0  0  0  0  0  0  0  0  0  0  0
  -83.8610   33.0239   -0.6371 C   0  0  0  0  0  0  0  0  0  0  0  0
  -82.7175   32.5801   -0.0260 C   0  0  0  0  0  0  0  0  0  0  0  0
  -82.7720   31.4738    0.7833 C   0  0  0  0  0  0  0  0  0  0  0  0
  -83.9599   30.8253    0.9738 C   0  0  0  0  0  0  0  0  0  0  0  0
  -85.0853   31.3002    0.3438 C   0  0  0  0  0  0  0  0  0  0  0  0
  -89.4527   34.6634   -3.3755 C   0  0  0  0  0  0  0  0  0  0  0  0
  -88.3381   34.0383   -2.5777 C   0  0  0  0  0  0  0  0  0  0  0  0
  -88.6046   33.1659   -1.5464 C   0  0  0  0  0  0  0  0  0  0  0  0
  -87.5550   32.5979   -0.8197 C   0  0  0  0  0  0  0  0  0  0  0  0
  -86.2656   32.9291   -1.1577 C   0  0  0  0  0  0  0  0  0  0  0  0
  -86.0832   33.7837   -2.1716 N   0  0  0  0  0  0  0  0  0  0  0  0
  -87.0690   34.3223   -2.8601 N   0  0  0  0  0  0  0  0  0  0  0  0
 23 24  1  0  0  0
 24 25  2  0  0  0
 25 26  1  0  0  0
 26 27  2  0  0  0
 27 17  1  0  0  0
 17 18  2  0  0  0
 18 19  1  0  0  0
 19 20  2  0  0  0
 20 21  1  0  0  0
 21 16  1  0  0  0
 16  1  1  0  0  0
  1  2  1  0  0  0
  2  3  2  0  0  0
  3  8  1  0  0  0
  8  9  2  0  0  0
  9 10  1  0  0  0
 10 11  1  0  0  0
 10 12  2  0  0  0
 12 13  1  0  0  0
 13 14  1  0  0  0
 13 15  2  0  0  0
  3  4  1  0  0  0
  4  5  2  0  0  0
  5  6  1  0  0  0
  6  7  2  0  0  0
 21 22  2  0  0  0
 27 28  1  0  0  0
 28 29  2  0  0  0
 29 24  1  0  0  0
 22 17  1  0  0  0
  6  1  1  0  0  0
 15  8  1  0  0  0
M  END
> <minimizedAffinity>
-10.48425

> <CNNscore>
0.6821631193

> <CNNaffinity>
7.2102270126

> <CNN_VS>
4.9185509682

> <CNNaffinity_variance>
0.2179824859

$$$$
[H]c1c(-c2c([H])c([H])c([H])c(C([H])([H])n3nc(-c4c([H])c(F)c([H])c(F)c4[H])c([H])c([H])c3=O)c2[H])nnc(C([H])([H])[H])c1[H]


 29 32  0  0  0  0  0  0  0  0999 V2000
  -84.9668   27.8545    1.9022 N   0  0  0  0  0  0  0  0  0  0  0  0
  -85.2955   28.9705    1.2578 N   0  0  0  0  0  0  0  0  0  0  0  0
  -84.4710   30.0236    1.0933 C   0  0  0  0  0  0  0  0  0  0  0  0
  -83.2003   29.9449    1.6266 C   0  0  0  0  0  0  0  0  0  0  0  0
  -82.8201   28.8008    2.3043 C   0  0  0  0  0  0  0  0  0  0  0  0
  -83.7358   27.7587    2.4281 C   0  0  0  0  0  0  0  0  0  0  0  0
  -83.4556   26.7051    3.0257 O   0  0  0  0  0  0  0  0  0  0  0  0
  -84.9388   31.2089    0.3624 C   0  0  0  0  0  0  0  0  0  0  0  0
  -86.2236   31.4005   -0.0605 C   0  0  0  0  0  0  0  0  0  0  0  0
  -86.6034   32.5507   -0.7511 C   0  0  0  0  0  0  0  0  0  0  0  0
  -87.8752   32.7179   -1.1578 F   0  0  0  0  0  0  0  0  0  0  0  0
  -85.6909   33.5401   -1.0330 C   0  0  0  0  0  0  0  0  0  0  0  0
  -84.3928   33.3557   -0.6107 C   0  0  0  0  0  0  0  0  0  0  0  0
  -83.4924   34.3270   -0.8863 F   0  0  0  0  0  0  0  0  0  0  0  0
  -84.0317   32.2131    0.0714 C   0  0  0  0  0  0  0  0  0  0  0  0
  -85.9570   26.8266    1.9827 C   0  0  0  0  0  0  0  0  0  0  0  0
  -88.6992   28.2764   -0.1272 C   0  0  0  0  0  0  0  0  0  0  0  0
  -89.7805   27.7512    0.5609 C   0  0  0  0  0  0  0  0  0  0  0  0
  -89.6495   26.9567    1.6697 C   0  0  0  0  0  0  0  0  0  0  0  0
  -88.3958   26.6545    2.1376 C   0  0  0  0  0  0  0  0  0  0  0  0
  -87.2920   27.1451    1.4982 C   0  0  0  0  0  0  0  0  0  0  0  0
  -87.4637   27.9387    0.3893 C   0  0  0  0  0  0  0  0  0  0  0  0
  -89.8752   31.6563   -4.5630 C   0  0  0  0  0  0  0  0  0  0  0  0
  -89.5133   30.7505   -3.4150 C   0  0  0  0  0  0  0  0  0  0  0  0
  -88.3089   30.0839   -3.3878 C   0  0  0  0  0  0  0  0  0  0  0  0
  -87.9940   29.2486   -2.3127 C   0  0  0  0  0  0  0  0  0  0  0  0
  -88.9074   29.1120   -1.2960 C   0  0  0  0  0  0  0  0  0  0  0  0
  -90.0570   29.7909   -1.3907 N   0  0  0  0  0  0  0  0  0  0  0  0
  -90.3591   30.5797   -2.4019 N   0  0  0  0  0  0  0  0  0  0  0  0
 23 24  1  0  0  0
 24 25  2  0  0  0
 25 26  1  0  0  0
 26 27  2  0  0  0
 27 17  1  0  0  0
 17 18  2  0  0  0
 18 19  1  0  0  0
 19 20  2  0  0  0
 20 21  1  0  0  0
 21 16  1  0  0  0
 16  1  1  0  0  0
  1  2  1  0  0  0
  2  3  2  0  0  0
  3  8  1  0  0  0
  8  9  2  0  0  0
  9 10  1  0  0  0
 10 11  1  0  0  0
 10 12  2  0  0  0
 12 13  1  0  0  0
 13 14  1  0  0  0
 13 15  2  0  0  0
  3  4  1  0  0  0
  4  5  2  0  0  0
  5  6  1  0  0  0
  6  7  2  0  0  0
 21 22  2  0  0  0
 27 28  1  0  0  0
 28 29  2  0  0  0
 29 24  1  0  0  0
 22 17  1  0  0  0
  6  1  1  0  0  0
 15  8  1  0  0  0
M  END
> <minimizedAffinity>
-10.03117

> <CNNscore>
0.6752662063

> <CNNaffinity>
7.2847328186

> <CNN_VS>
4.9191336632

> <CNNaffinity_variance>
0.2319481671

$$$$
[H]c1c(-c2c([H])c([H])c([H])c(C([H])([H])n3nc(-c4c([H])c(F)c([H])c(F)c4[H])c([H])c([H])c3=O)c2[H])nnc(C([H])([H])[H])c1[H]


 29 32  0  0  0  0  0  0  0  0999 V2000
  -85.3418   29.0272    2.0275 N   0  0  0  0  0  0  0  0  0  0  0  0
  -86.5643   29.1367    1.5153 N   0  0  0  0  0  0  0  0  0  0  0  0
  -87.3494   28.0900    1.1930 C   0  0  0  0  0  0  0  0  0  0  0  0
  -86.8580   26.8178    1.4060 C   0  0  0  0  0  0  0  0  0  0  0  0
  -85.5906   26.6617    1.9371 C   0  0  0  0  0  0  0  0  0  0  0  0
  -84.8460   27.7986    2.2419 C   0  0  0  0  0  0  0  0  0  0  0  0
  -83.7010   27.7256    2.7206 O   0  0  0  0  0  0  0  0  0  0  0  0
  -88.6864   28.3266    0.6322 C   0  0  0  0  0  0  0  0  0  0  0  0
  -89.0454   29.4428   -0.0690 C   0  0  0  0  0  0  0  0  0  0  0  0
  -90.3341   29.6063   -0.5757 C   0  0  0  0  0  0  0  0  0  0  0  0
  -90.6649   30.7145   -1.2637 F   0  0  0  0  0  0  0  0  0  0  0  0
  -91.2962   28.6424   -0.3859 C   0  0  0  0  0  0  0  0  0  0  0  0
  -90.9436   27.5134    0.3201 C   0  0  0  0  0  0  0  0  0  0  0  0
  -91.8877   26.5630    0.5087 F   0  0  0  0  0  0  0  0  0  0  0  0
  -89.6653   27.3653    0.8153 C   0  0  0  0  0  0  0  0  0  0  0  0
  -84.6415   30.2385    2.3204 C   0  0  0  0  0  0  0  0  0  0  0  0
  -85.4369   32.5724   -0.5070 C   0  0  0  0  0  0  0  0  0  0  0  0
  -84.1442   32.9655   -0.8120 C   0  0  0  0  0  0  0  0  0  0  0  0
  -83.0421   32.5034   -0.1416 C   0  0  0  0  0  0  0  0  0  0  0  0
  -83.2043   31.6076    0.8847 C   0  0  0  0  0  0  0  0  0  0  0  0
  -84.4572   31.1846    1.2298 C   0  0  0  0  0  0  0  0  0  0  0  0
  -85.5383   31.6704    0.5339 C   0  0  0  0  0  0  0  0  0  0  0  0
  -89.5897   34.8423   -3.6826 C   0  0  0  0  0  0  0  0  0  0  0  0
  -88.5325   34.2152   -2.8117 C   0  0  0  0  0  0  0  0  0  0  0  0
  -88.8718   33.3762   -1.7741 C   0  0  0  0  0  0  0  0  0  0  0  0
  -87.8744   32.8055   -0.9791 C   0  0  0  0  0  0  0  0  0  0  0  0
  -86.5621   33.1004   -1.2571 C   0  0  0  0  0  0  0  0  0  0  0  0
  -86.3081   33.9239   -2.2813 N   0  0  0  0  0  0  0  0  0  0  0  0
  -87.2443   34.4647   -3.0341 N   0  0  0  0  0  0  0  0  0  0  0  0
 23 24  1  0  0  0
 24 25  2  0  0  0
 25 26  1  0  0  0
 26 27  2  0  0  0
 27 17  1  0  0  0
 17 18  2  0  0  0
 18 19  1  0  0  0
 19 20  2  0  0  0
 20 21  1  0  0  0
 21 16  1  0  0  0
 16  1  1  0  0  0
  1  2  1  0  0  0
  2  3  2  0  0  0
  3  8  1  0  0  0
  8  9  2  0  0  0
  9 10  1  0  0  0
 10 11  1  0  0  0
 10 12  2  0  0  0
 12 13  1  0  0  0
 13 14  1  0  0  0
 13 15  2  0  0  0
  3  4  1  0  0  0
  4  5  2  0  0  0
  5  6  1  0  0  0
  6  7  2  0  0  0
 21 22  2  0  0  0
 27 28  1  0  0  0
 28 29  2  0  0  0
 29 24  1  0  0  0
 22 17  1  0  0  0
  6  1  1  0  0  0
 15  8  1  0  0  0
M  END
> <minimizedAffinity>
-9.93685

> <CNNscore>
0.5926352143

> <CNNaffinity>
7.0469255447

> <CNN_VS>
4.1762561798

> <CNNaffinity_variance>
0.1523457468

$$$$
[H]c1c(-c2c([H])c([H])c([H])c(C([H])([H])n3nc(-c4c([H])c(F)c([H])c(F)c4[H])c([H])c([H])c3=O)c2[H])nnc(C([H])([H])[H])c1[H]


 29 32  0  0  0  0  0  0  0  0999 V2000
  -85.2823   32.6711   -0.5053 N   0  0  0  0  0  0  0  0  0  0  0  0
  -85.9583   31.5715   -0.1849 N   0  0  0  0  0  0  0  0  0  0  0  0
  -85.3975   30.4552    0.3204 C   0  0  0  0  0  0  0  0  0  0  0  0
  -84.0317   30.4463    0.5207 C   0  0  0  0  0  0  0  0  0  0  0  0
  -83.2931   31.5706    0.1998 C   0  0  0  0  0  0  0  0  0  0  0  0
  -83.9534   32.6822   -0.3181 C   0  0  0  0  0  0  0  0  0  0  0  0
  -83.3466   33.7224   -0.6269 O   0  0  0  0  0  0  0  0  0  0  0  0
  -86.2408   29.2956    0.6396 C   0  0  0  0  0  0  0  0  0  0  0  0
  -85.8395   28.2314    1.3965 C   0  0  0  0  0  0  0  0  0  0  0  0
  -86.6909   27.1598    1.6630 C   0  0  0  0  0  0  0  0  0  0  0  0
  -86.2736   26.1222    2.4115 F   0  0  0  0  0  0  0  0  0  0  0  0
  -87.9742   27.1364    1.1695 C   0  0  0  0  0  0  0  0  0  0  0  0
  -88.3878   28.2050    0.4051 C   0  0  0  0  0  0  0  0  0  0  0  0
  -89.6497   28.1853   -0.0822 F   0  0  0  0  0  0  0  0  0  0  0  0
  -87.5349   29.2579    0.1498 C   0  0  0  0  0  0  0  0  0  0  0  0
  -86.0296   33.7734   -1.0251 C   0  0  0  0  0  0  0  0  0  0  0  0
  -87.7579   34.4980   -4.2750 C   0  0  0  0  0  0  0  0  0  0  0  0
  -88.0975   33.1990   -4.6153 C   0  0  0  0  0  0  0  0  0  0  0  0
  -87.7900   32.1148   -3.8357 C   0  0  0  0  0  0  0  0  0  0  0  0
  -87.1134   32.3027   -2.6572 C   0  0  0  0  0  0  0  0  0  0  0  0
  -86.7524   33.5629   -2.2708 C   0  0  0  0  0  0  0  0  0  0  0  0
  -87.0786   34.6254   -3.0793 C   0  0  0  0  0  0  0  0  0  0  0  0
  -88.8240   38.7571   -7.9090 C   0  0  0  0  0  0  0  0  0  0  0  0
  -88.5907   37.6452   -6.9198 C   0  0  0  0  0  0  0  0  0  0  0  0
  -89.4696   37.4187   -5.8844 C   0  0  0  0  0  0  0  0  0  0  0  0
  -89.2332   36.3815   -4.9784 C   0  0  0  0  0  0  0  0  0  0  0  0
  -88.1140   35.6032   -5.1463 C   0  0  0  0  0  0  0  0  0  0  0  0
  -87.3051   35.8824   -6.1755 N   0  0  0  0  0  0  0  0  0  0  0  0
  -87.5229   36.8589   -7.0327 N   0  0  0  0  0  0  0  0  0  0  0  0
 23 24  1  0  0  0
 24 25  2  0  0  0
 25 26  1  0  0  0
 26 27  2  0  0  0
 27 17  1  0  0  0
 17 18  2  0  0  0
 18 19  1  0  0  0
 19 20  2  0  0  0
 20 21  1  0  0  0
 21 16  1  0  0  0
 16  1  1  0  0  0
  1  2  1  0  0  0
  2  3  2  0  0  0
  3  8  1  0  0  0
  8  9  2  0  0  0
  9 10  1  0  0  0
 10 11  1  0  0  0
 10 12  2  0  0  0
 12 13  1  0  0  0
 13 14  1  0  0  0
 13 15  2  0  0  0
  3  4  1  0  0  0
  4  5  2  0  0  0
  5  6  1  0  0  0
  6  7  2  0  0  0
 21 22  2  0  0  0
 27 28  1  0  0  0
 28 29  2  0  0  0
 29 24  1  0  0  0
 22 17  1  0  0  0
  6  1  1  0  0  0
 15  8  1  0  0  0
M  END
> <minimizedAffinity>
-9.13374

> <CNNscore>
0.5402505398

> <CNNaffinity>
6.4750852585

> <CNN_VS>
3.4981682301

> <CNNaffinity_variance>
0.1451399028

$$$$
[H]c1c(-c2c([H])c([H])c([H])c(C([H])([H])n3nc(-c4c([H])c(F)c([H])c(F)c4[H])c([H])c([H])c3=O)c2[H])nnc(C([H])([H])[H])c1[H]


 29 32  0  0  0  0  0  0  0  0999 V2000
  -85.1395   32.6720   -0.4308 N   0  0  0  0  0  0  0  0  0  0  0  0
  -85.1661   31.4810    0.1607 N   0  0  0  0  0  0  0  0  0  0  0  0
  -84.0895   30.8771    0.7011 C   0  0  0  0  0  0  0  0  0  0  0  0
  -82.8763   31.5327    0.6398 C   0  0  0  0  0  0  0  0  0  0  0  0
  -82.8070   32.7733    0.0327 C   0  0  0  0  0  0  0  0  0  0  0  0
  -83.9693   33.3253   -0.5006 C   0  0  0  0  0  0  0  0  0  0  0  0
  -83.9731   34.4359   -1.0594 O   0  0  0  0  0  0  0  0  0  0  0  0
  -84.2330   29.5579    1.3312 C   0  0  0  0  0  0  0  0  0  0  0  0
  -83.2566   28.9361    2.0566 C   0  0  0  0  0  0  0  0  0  0  0  0
  -83.4571   27.6810    2.6298 C   0  0  0  0  0  0  0  0  0  0  0  0
  -82.4804   27.0877    3.3406 F   0  0  0  0  0  0  0  0  0  0  0  0
  -84.6539   27.0198    2.4837 C   0  0  0  0  0  0  0  0  0  0  0  0
  -85.6446   27.6388    1.7538 C   0  0  0  0  0  0  0  0  0  0  0  0
  -86.8233   26.9913    1.6080 F   0  0  0  0  0  0  0  0  0  0  0  0
  -85.4320   28.8803    1.1927 C   0  0  0  0  0  0  0  0  0  0  0  0
  -86.3731   33.1759   -0.9483 C   0  0  0  0  0  0  0  0  0  0  0  0
  -88.1260   30.3661   -2.7106 C   0  0  0  0  0  0  0  0  0  0  0  0
  -88.2393   30.9530   -3.9601 C   0  0  0  0  0  0  0  0  0  0  0  0
  -87.7712   32.2093   -4.2437 C   0  0  0  0  0  0  0  0  0  0  0  0
  -87.1574   32.9382   -3.2569 C   0  0  0  0  0  0  0  0  0  0  0  0
  -87.0178   32.4095   -2.0043 C   0  0  0  0  0  0  0  0  0  0  0  0
  -87.5000   31.1462   -1.7582 C   0  0  0  0  0  0  0  0  0  0  0  0
  -90.4356   25.1949   -2.0731 C   0  0  0  0  0  0  0  0  0  0  0  0
  -89.7865   26.5483   -2.2005 C   0  0  0  0  0  0  0  0  0  0  0  0
  -88.7029   26.8930   -1.4241 C   0  0  0  0  0  0  0  0  0  0  0  0
  -88.1165   28.1541   -1.5592 C   0  0  0  0  0  0  0  0  0  0  0  0
  -88.6437   29.0302   -2.4763 C   0  0  0  0  0  0  0  0  0  0  0  0
  -89.6975   28.6258   -3.1956 N   0  0  0  0  0  0  0  0  0  0  0  0
  -90.2543   27.4381   -3.0724 N   0  0  0  0  0  0  0  0  0  0  0  0
 23 24  1  0  0  0
 24 25  2  0  0  0
 25 26  1  0  0  0
 26 27  2  0  0  0
 27 17  1  0  0  0
 17 18  2  0  0  0
 18 19  1  0  0  0
 19 20  2  0  0  0
 20 21  1  0  0  0
 21 16  1  0  0  0
 16  1  1  0  0  0
  1  2  1  0  0  0
  2  3  2  0  0  0
  3  8  1  0  0  0
  8  9  2  0  0  0
  9 10  1  0  0  0
 10 11  1  0  0  0
 10 12  2  0  0  0
 12 13  1  0  0  0
 13 14  1  0  0  0
 13 15  2  0  0  0
  3  4  1  0  0  0
  4  5  2  0  0  0
  5  6  1  0  0  0
  6  7  2  0  0  0
 21 22  2  0  0  0
 27 28  1  0  0  0
 28 29  2  0  0  0
 29 24  1  0  0  0
 22 17  1  0  0  0
  6  1  1  0  0  0
 15  8  1  0  0  0
M  END
> <minimizedAffinity>
-10.06488

> <CNNscore>
0.4331695139

> <CNNaffinity>
6.9176216125

> <CNN_VS>
2.9965028763

> <CNNaffinity_variance>
0.2143050134

$$$$
[H]c1c(-c2c([H])c([H])c([H])c(C([H])([H])n3nc(-c4c([H])c(F)c([H])c(F)c4[H])c([H])c([H])c3=O)c2[H])nnc(C([H])([H])[H])c1[H]


 29 32  0  0  0  0  0  0  0  0999 V2000
  -89.8249   31.1256   -1.4243 N   0  0  0  0  0  0  0  0  0  0  0  0
  -89.6032   30.3394   -0.3748 N   0  0  0  0  0  0  0  0  0  0  0  0
  -90.0152   29.0597   -0.2838 C   0  0  0  0  0  0  0  0  0  0  0  0
  -90.7141   28.5238   -1.3467 C   0  0  0  0  0  0  0  0  0  0  0  0
  -90.9652   29.3093   -2.4569 C   0  0  0  0  0  0  0  0  0  0  0  0
  -90.5029   30.6231   -2.4679 C   0  0  0  0  0  0  0  0  0  0  0  0
  -90.6966   31.3800   -3.4349 O   0  0  0  0  0  0  0  0  0  0  0  0
  -89.7146   28.2809    0.9249 C   0  0  0  0  0  0  0  0  0  0  0  0
  -88.5792   27.5437    1.1085 C   0  0  0  0  0  0  0  0  0  0  0  0
  -88.3541   26.8254    2.2822 C   0  0  0  0  0  0  0  0  0  0  0  0
  -87.2279   26.1061    2.4407 F   0  0  0  0  0  0  0  0  0  0  0  0
  -89.2743   26.8339    3.3040 C   0  0  0  0  0  0  0  0  0  0  0  0
  -90.4224   27.5744    3.1281 C   0  0  0  0  0  0  0  0  0  0  0  0
  -91.3300   27.5851    4.1312 F   0  0  0  0  0  0  0  0  0  0  0  0
  -90.6315   28.2798    1.9619 C   0  0  0  0  0  0  0  0  0  0  0  0
  -89.3143   32.4596   -1.3652 C   0  0  0  0  0  0  0  0  0  0  0  0
  -85.8242   31.7610   -0.1800 C   0  0  0  0  0  0  0  0  0  0  0  0
  -85.2063   32.8852   -0.7025 C   0  0  0  0  0  0  0  0  0  0  0  0
  -85.8758   33.8466   -1.4134 C   0  0  0  0  0  0  0  0  0  0  0  0
  -87.2234   33.7085   -1.6296 C   0  0  0  0  0  0  0  0  0  0  0  0
  -87.8856   32.6190   -1.1374 C   0  0  0  0  0  0  0  0  0  0  0  0
  -87.1799   31.6759   -0.4291 C   0  0  0  0  0  0  0  0  0  0  0  0
  -83.1328   27.6676    2.7327 C   0  0  0  0  0  0  0  0  0  0  0  0
  -83.7961   28.7819    1.9659 C   0  0  0  0  0  0  0  0  0  0  0  0
  -83.1210   29.9468    1.6779 C   0  0  0  0  0  0  0  0  0  0  0  0
  -83.7561   30.9673    0.9653 C   0  0  0  0  0  0  0  0  0  0  0  0
  -85.0563   30.7794    0.5645 C   0  0  0  0  0  0  0  0  0  0  0  0
  -85.6485   29.6214    0.8804 N   0  0  0  0  0  0  0  0  0  0  0  0
  -85.0546   28.6559    1.5520 N   0  0  0  0  0  0  0  0  0  0  0  0
 23 24  1  0  0  0
 24 25  2  0  0  0
 25 26  1  0  0  0
 26 27  2  0  0  0
 27 17  1  0  0  0
 17 18  2  0  0  0
 18 19  1  0  0  0
 19 20  2  0  0  0
 20 21  1  0  0  0
 21 16  1  0  0  0
 16  1  1  0  0  0
  1  2  1  0  0  0
  2  3  2  0  0  0
  3  8  1  0  0  0
  8  9  2  0  0  0
  9 10  1  0  0  0
 10 11  1  0  0  0
 10 12  2  0  0  0
 12 13  1  0  0  0
 13 14  1  0  0  0
 13 15  2  0  0  0
  3  4  1  0  0  0
  4  5  2  0  0  0
  5  6  1  0  0  0
  6  7  2  0  0  0
 21 22  2  0  0  0
 27 28  1  0  0  0
 28 29  2  0  0  0
 29 24  1  0  0  0
 22 17  1  0  0  0
  6  1  1  0  0  0
 15  8  1  0  0  0
M  END
> <minimizedAffinity>
-9.83445

> <CNNscore>
0.4318642318

> <CNNaffinity>
6.7514486313

> <CNN_VS>
2.9157092571

> <CNNaffinity_variance>
0.2200595886

$$$$
[H]c1c(-c2c([H])c([H])c([H])c(C([H])([H])n3nc(-c4c([H])c(F)c([H])c(F)c4[H])c([H])c([H])c3=O)c2[H])nnc(C([H])([H])[H])c1[H]


 29 32  0  0  0  0  0  0  0  0999 V2000
  -87.5112   31.6536   -1.5083 N   0  0  0  0  0  0  0  0  0  0  0  0
  -86.9017   30.7261   -0.7755 N   0  0  0  0  0  0  0  0  0  0  0  0
  -85.8882   30.9761    0.0765 C   0  0  0  0  0  0  0  0  0  0  0  0
  -85.4491   32.2789    0.2013 C   0  0  0  0  0  0  0  0  0  0  0  0
  -86.0572   33.2726   -0.5439 C   0  0  0  0  0  0  0  0  0  0  0  0
  -87.0987   32.9262   -1.4013 C   0  0  0  0  0  0  0  0  0  0  0  0
  -87.6854   33.7723   -2.0982 O   0  0  0  0  0  0  0  0  0  0  0  0
  -85.2867   29.8733    0.8381 C   0  0  0  0  0  0  0  0  0  0  0  0
  -85.9417   28.7269    1.1886 C   0  0  0  0  0  0  0  0  0  0  0  0
  -85.3119   27.7161    1.9137 C   0  0  0  0  0  0  0  0  0  0  0  0
  -85.9773   26.5951    2.2477 F   0  0  0  0  0  0  0  0  0  0  0  0
  -83.9992   27.8388    2.3045 C   0  0  0  0  0  0  0  0  0  0  0  0
  -83.3304   28.9914    1.9558 C   0  0  0  0  0  0  0  0  0  0  0  0
  -82.0389   29.1155    2.3386 F   0  0  0  0  0  0  0  0  0  0  0  0
  -83.9662   29.9826    1.2384 C   0  0  0  0  0  0  0  0  0  0  0  0
  -88.5756   31.2230   -2.3600 C   0  0  0  0  0  0  0  0  0  0  0  0
  -90.4749   29.1445    0.1191 C   0  0  0  0  0  0  0  0  0  0  0  0
  -91.6747   29.0598   -0.5678 C   0  0  0  0  0  0  0  0  0  0  0  0
  -91.8820   29.6445   -1.7896 C   0  0  0  0  0  0  0  0  0  0  0  0
  -90.8655   30.3526   -2.3788 C   0  0  0  0  0  0  0  0  0  0  0  0
  -89.6594   30.4697   -1.7467 C   0  0  0  0  0  0  0  0  0  0  0  0
  -89.4895   29.8691   -0.5221 C   0  0  0  0  0  0  0  0  0  0  0  0
  -90.2057   26.8067    5.3100 C   0  0  0  0  0  0  0  0  0  0  0  0
  -90.2283   27.3962    3.9239 C   0  0  0  0  0  0  0  0  0  0  0  0
  -89.2513   27.0877    3.0041 C   0  0  0  0  0  0  0  0  0  0  0  0
  -89.2921   27.6463    1.7239 C   0  0  0  0  0  0  0  0  0  0  0  0
  -90.3207   28.5011    1.4114 C   0  0  0  0  0  0  0  0  0  0  0  0
  -91.2343   28.7544    2.3562 N   0  0  0  0  0  0  0  0  0  0  0  0
  -91.2007   28.2307    3.5647 N   0  0  0  0  0  0  0  0  0  0  0  0
 23 24  1  0  0  0
 24 25  2  0  0  0
 25 26  1  0  0  0
 26 27  2  0  0  0
 27 17  1  0  0  0
 17 18  2  0  0  0
 18 19  1  0  0  0
 19 20  2  0  0  0
 20 21  1  0  0  0
 21 16  1  0  0  0
 16  1  1  0  0  0
  1  2  1  0  0  0
  2  3  2  0  0  0
  3  8  1  0  0  0
  8  9  2  0  0  0
  9 10  1  0  0  0
 10 11  1  0  0  0
 10 12  2  0  0  0
 12 13  1  0  0  0
 13 14  1  0  0  0
 13 15  2  0  0  0
  3  4  1  0  0  0
  4  5  2  0  0  0
  5  6  1  0  0  0
  6  7  2  0  0  0
 21 22  2  0  0  0
 27 28  1  0  0  0
 28 29  2  0  0  0
 29 24  1  0  0  0
 22 17  1  0  0  0
  6  1  1  0  0  0
 15  8  1  0  0  0
M  END
> <minimizedAffinity>
-10.50789

> <CNNscore>
0.4123887122

> <CNNaffinity>
6.6125168800

> <CNN_VS>
2.7269272804

> <CNNaffinity_variance>
0.3957206905

$$$$
[H]c1c(-c2c([H])c([H])c([H])c(C([H])([H])n3nc(-c4c([H])c(F)c([H])c(F)c4[H])c([H])c([H])c3=O)c2[H])nnc(C([H])([H])[H])c1[H]


 29 32  0  0  0  0  0  0  0  0999 V2000
  -87.4304   31.6551   -1.5032 N   0  0  0  0  0  0  0  0  0  0  0  0
  -86.7889   30.7521   -0.7672 N   0  0  0  0  0  0  0  0  0  0  0  0
  -85.7963   31.0425    0.0966 C   0  0  0  0  0  0  0  0  0  0  0  0
  -85.4156   32.3626    0.2306 C   0  0  0  0  0  0  0  0  0  0  0  0
  -86.0585   33.3319   -0.5176 C   0  0  0  0  0  0  0  0  0  0  0  0
  -87.0748   32.9440   -1.3873 C   0  0  0  0  0  0  0  0  0  0  0  0
  -87.6904   33.7665   -2.0874 O   0  0  0  0  0  0  0  0  0  0  0  0
  -85.1554   29.9639    0.8607 C   0  0  0  0  0  0  0  0  0  0  0  0
  -83.8564   29.9807    1.2833 C   0  0  0  0  0  0  0  0  0  0  0  0
  -83.3078   28.9223    2.0064 C   0  0  0  0  0  0  0  0  0  0  0  0
  -82.0254   28.9610    2.4125 F   0  0  0  0  0  0  0  0  0  0  0  0
  -84.0609   27.8158    2.3218 C   0  0  0  0  0  0  0  0  0  0  0  0
  -85.3719   27.7897    1.8998 C   0  0  0  0  0  0  0  0  0  0  0  0
  -86.1157   26.7027    2.2084 F   0  0  0  0  0  0  0  0  0  0  0  0
  -85.9009   28.8438    1.1855 C   0  0  0  0  0  0  0  0  0  0  0  0
  -88.4660   31.1820   -2.3677 C   0  0  0  0  0  0  0  0  0  0  0  0
  -90.4366   29.1717    0.1120 C   0  0  0  0  0  0  0  0  0  0  0  0
  -91.6403   29.1338   -0.5722 C   0  0  0  0  0  0  0  0  0  0  0  0
  -91.8283   29.7283   -1.7925 C   0  0  0  0  0  0  0  0  0  0  0  0
  -90.7871   30.3987   -2.3827 C   0  0  0  0  0  0  0  0  0  0  0  0
  -89.5760   30.4689   -1.7532 C   0  0  0  0  0  0  0  0  0  0  0  0
  -89.4260   29.8599   -0.5303 C   0  0  0  0  0  0  0  0  0  0  0  0
  -90.2508   26.8059    5.2938 C   0  0  0  0  0  0  0  0  0  0  0  0
  -90.2514   27.4024    3.9105 C   0  0  0  0  0  0  0  0  0  0  0  0
  -89.2671   27.0885    3.0004 C   0  0  0  0  0  0  0  0  0  0  0  0
  -89.2876   27.6537    1.7226 C   0  0  0  0  0  0  0  0  0  0  0  0
  -90.3038   28.5205    1.4027 C   0  0  0  0  0  0  0  0  0  0  0  0
  -91.2256   28.7785    2.3383 N   0  0  0  0  0  0  0  0  0  0  0  0
  -91.2112   28.2485    3.5444 N   0  0  0  0  0  0  0  0  0  0  0  0
 23 24  1  0  0  0
 24 25  2  0  0  0
 25 26  1  0  0  0
 26 27  2  0  0  0
 27 17  1  0  0  0
 17 18  2  0  0  0
 18 19  1  0  0  0
 19 20  2  0  0  0
 20 21  1  0  0  0
 21 16  1  0  0  0
 16  1  1  0  0  0
  1  2  1  0  0  0
  2  3  2  0  0  0
  3  8  1  0  0  0
  8  9  2  0  0  0
  9 10  1  0  0  0
 10 11  1  0  0  0
 10 12  2  0  0  0
 12 13  1  0  0  0
 13 14  1  0  0  0
 13 15  2  0  0  0
  3  4  1  0  0  0
  4  5  2  0  0  0
  5  6  1  0  0  0
  6  7  2  0  0  0
 21 22  2  0  0  0
 27 28  1  0  0  0
 28 29  2  0  0  0
 29 24  1  0  0  0
 22 17  1  0  0  0
  6  1  1  0  0  0
 15  8  1  0  0  0
M  END
> <minimizedAffinity>
-10.44419

> <CNNscore>
0.4107659161

> <CNNaffinity>
6.6100707054

> <CNN_VS>
2.7151918411

> <CNNaffinity_variance>
0.4075589776

$$$$
[H]c1c(-c2c([H])c([H])c([H])c(C([H])([H])n3nc(-c4c([H])c(F)c([H])c(F)c4[H])c([H])c([H])c3=O)c2[H])nnc(C([H])([H])[H])c1[H]


 29 32  0  0  0  0  0  0  0  0999 V2000
  -84.8860   32.1076    0.0653 N   0  0  0  0  0  0  0  0  0  0  0  0
  -86.0388   31.4615   -0.0849 N   0  0  0  0  0  0  0  0  0  0  0  0
  -86.9675   31.7703   -1.0111 C   0  0  0  0  0  0  0  0  0  0  0  0
  -86.7115   32.8259   -1.8629 C   0  0  0  0  0  0  0  0  0  0  0  0
  -85.5237   33.5234   -1.7387 C   0  0  0  0  0  0  0  0  0  0  0  0
  -84.6186   33.1370   -0.7531 C   0  0  0  0  0  0  0  0  0  0  0  0
  -83.5345   33.7234   -0.5900 O   0  0  0  0  0  0  0  0  0  0  0  0
  -88.2085   30.9880   -1.0887 C   0  0  0  0  0  0  0  0  0  0  0  0
  -88.8258   30.4073   -0.0172 C   0  0  0  0  0  0  0  0  0  0  0  0
  -90.0044   29.6759   -0.1590 C   0  0  0  0  0  0  0  0  0  0  0  0
  -90.5950   29.1128    0.9111 F   0  0  0  0  0  0  0  0  0  0  0  0
  -90.5912   29.5122   -1.3918 C   0  0  0  0  0  0  0  0  0  0  0  0
  -89.9760   30.0940   -2.4782 C   0  0  0  0  0  0  0  0  0  0  0  0
  -90.5504   29.9350   -3.6926 F   0  0  0  0  0  0  0  0  0  0  0  0
  -88.8106   30.8145   -2.3229 C   0  0  0  0  0  0  0  0  0  0  0  0
  -84.0055   31.6493    1.0940 C   0  0  0  0  0  0  0  0  0  0  0  0
  -85.4929   28.2633    1.7235 C   0  0  0  0  0  0  0  0  0  0  0  0
  -84.3710   27.6468    2.2525 C   0  0  0  0  0  0  0  0  0  0  0  0
  -83.1687   28.2852    2.4100 C   0  0  0  0  0  0  0  0  0  0  0  0
  -83.0486   29.5984    2.0319 C   0  0  0  0  0  0  0  0  0  0  0  0
  -84.1229   30.2576    1.5035 C   0  0  0  0  0  0  0  0  0  0  0  0
  -85.3123   29.5837    1.3611 C   0  0  0  0  0  0  0  0  0  0  0  0
  -90.5024   25.5532    1.5168 C   0  0  0  0  0  0  0  0  0  0  0  0
  -89.1634   26.2434    1.5218 C   0  0  0  0  0  0  0  0  0  0  0  0
  -88.2483   26.0273    0.5160 C   0  0  0  0  0  0  0  0  0  0  0  0
  -87.0121   26.6783    0.5410 C   0  0  0  0  0  0  0  0  0  0  0  0
  -86.7376   27.5294    1.5835 C   0  0  0  0  0  0  0  0  0  0  0  0
  -87.6752   27.6902    2.5250 N   0  0  0  0  0  0  0  0  0  0  0  0
  -88.8422   27.0790    2.5065 N   0  0  0  0  0  0  0  0  0  0  0  0
 23 24  1  0  0  0
 24 25  2  0  0  0
 25 26  1  0  0  0
 26 27  2  0  0  0
 27 17  1  0  0  0
 17 18  2  0  0  0
 18 19  1  0  0  0
 19 20  2  0  0  0
 20 21  1  0  0  0
 21 16  1  0  0  0
 16  1  1  0  0  0
  1  2  1  0  0  0
  2  3  2  0  0  0
  3  8  1  0  0  0
  8  9  2  0  0  0
  9 10  1  0  0  0
 10 11  1  0  0  0
 10 12  2  0  0  0
 12 13  1  0  0  0
 13 14  1  0  0  0
 13 15  2  0  0  0
  3  4  1  0  0  0
  4  5  2  0  0  0
  5  6  1  0  0  0
  6  7  2  0  0  0
 21 22  2  0  0  0
 27 28  1  0  0  0
 28 29  2  0  0  0
 29 24  1  0  0  0
 22 17  1  0  0  0
  6  1  1  0  0  0
 15  8  1  0  0  0
M  END
> <minimizedAffinity>
-10.01253

> <CNNscore>
0.4039822221

> <CNNaffinity>
6.8521757126

> <CNN_VS>
2.7681572437

> <CNNaffinity_variance>
0.2087332904

$$$$
[H]c1c([H])c([H])c(-c2c([H])c([H])c(C([H])([H])Sc3nnc(-c4c([H])c([H])c5c(c4[H])O[C@@]([H])(C([H])([H])OC([H])([H])[H])C([H])([H])O5)o3)c([H])c2[H])c(C#N)c1[H]


 34 38  0  0  0  0  0  0  0  0999 V2000
  -85.2089   32.9639   -1.0431 C   0  0  0  0  0  0  0  0  0  0  0  0
  -84.0901   33.6872   -1.0445 N   0  0  0  0  0  0  0  0  0  0  0  0
  -83.1938   33.0589   -0.3152 N   0  0  0  0  0  0  0  0  0  0  0  0
  -83.7422   31.9340    0.1512 C   0  0  0  0  0  0  0  0  0  0  0  0
  -84.9895   31.9200   -0.3265 O   0  0  0  0  0  0  0  0  0  0  0  0
  -88.7337   35.6948   -5.2349 C   0  0  0  0  0  0  0  0  0  0  0  0
  -89.8057   34.6195   -5.1330 C   0  0  0  0  0  0  0  0  0  0  0  0
  -89.9582   34.3353   -3.7287 O   0  0  0  0  0  0  0  0  0  0  0  0
  -88.8052   33.9878   -3.0475 C   0  0  0  0  0  0  0  0  0  0  0  0
  -88.8662   33.3352   -1.8124 C   0  0  0  0  0  0  0  0  0  0  0  0
  -87.6747   33.0201   -1.1923 C   0  0  0  0  0  0  0  0  0  0  0  0
  -86.4528   33.3249   -1.7455 C   0  0  0  0  0  0  0  0  0  0  0  0
  -86.4190   33.9596   -2.9468 C   0  0  0  0  0  0  0  0  0  0  0  0
  -87.5902   34.3017   -3.6181 C   0  0  0  0  0  0  0  0  0  0  0  0
  -87.5286   34.9490   -4.8433 O   0  0  0  0  0  0  0  0  0  0  0  0
  -88.5238   36.2047   -6.6180 C   0  0  0  0  0  0  0  0  0  0  0  0
  -86.7709   37.6166   -7.3561 C   0  0  0  0  0  0  0  0  0  0  0  0
  -87.3067   36.4166   -7.1022 O   0  0  0  0  0  0  0  0  0  0  0  0
  -82.9964   30.7038    1.1863 S   0  0  0  0  0  0  0  0  0  0  0  0
  -84.1502   29.8613    2.2742 C   0  0  0  0  0  0  0  0  0  0  0  0
  -85.2598   29.2117    1.5479 C   0  0  0  0  0  0  0  0  0  0  0  0
  -86.2651   28.5990    2.2958 C   0  0  0  0  0  0  0  0  0  0  0  0
  -87.3116   27.9601    1.6694 C   0  0  0  0  0  0  0  0  0  0  0  0
  -87.4227   27.8916    0.3041 C   0  0  0  0  0  0  0  0  0  0  0  0
  -86.4242   28.4996   -0.4309 C   0  0  0  0  0  0  0  0  0  0  0  0
  -85.3696   29.1429    0.1940 C   0  0  0  0  0  0  0  0  0  0  0  0
  -88.5119   27.2391   -0.4055 C   0  0  0  0  0  0  0  0  0  0  0  0
  -88.3896   25.9062   -0.8201 C   0  0  0  0  0  0  0  0  0  0  0  0
  -89.4134   25.2701   -1.4793 C   0  0  0  0  0  0  0  0  0  0  0  0
  -90.6025   25.9045   -1.7644 C   0  0  0  0  0  0  0  0  0  0  0  0
  -90.7376   27.2134   -1.3640 C   0  0  0  0  0  0  0  0  0  0  0  0
  -89.6977   27.8649   -0.6927 C   0  0  0  0  0  0  0  0  0  0  0  0
  -89.8810   29.2390   -0.3071 C   0  0  0  0  0  0  0  0  0  0  0  0
  -90.0467   30.3533   -0.0129 N   0  0  0  0  0  0  0  0  0  0  0  0
 17 18  1  0  0  0
 18 16  1  0  0  0
 16  6  1  0  0  0
  6  7  1  0  0  0
  7  8  1  0  0  0
  8  9  1  0  0  0
  9 10  2  0  0  0
 10 11  1  0  0  0
 11 12  2  0  0  0
 12  1  1  0  0  0
  1  2  2  0  0  0
  2  3  1  0  0  0
  3  4  2  0  0  0
  4 19  1  0  0  0
 19 20  1  0  0  0
 20 21  1  0  0  0
 21 22  2  0  0  0
 22 23  1  0  0  0
 23 24  2  0  0  0
 24 27  1  0  0  0
 27 28  2  0  0  0
 28 29  1  0  0  0
 29 30  2  0  0  0
 30 31  1  0  0  0
 31 32  2  0  0  0
 32 33  1  0  0  0
 33 34  3  0  0  0
 24 25  1  0  0  0
 25 26  2  0  0  0
  4  5  1  0  0  0
 12 13  1  0  0  0
 13 14  2  0  0  0
 14 15  1  0  0  0
 15  6  1  0  0  0
 14  9  1  0  0  0
  5  1  1  0  0  0
 26 21  1  0  0  0
 32 27  1  0  0  0
M  END
> <minimizedAffinity>
-8.68391

> <CNNscore>
0.4773847759

> <CNNaffinity>
6.7235131264

> <CNN_VS>
3.2097027302

> <CNNaffinity_variance>
0.4372697771

$$$$
[H]c1c([H])c([H])c(-c2c([H])c([H])c(C([H])([H])Sc3nnc(-c4c([H])c([H])c5c(c4[H])O[C@@]([H])(C([H])([H])OC([H])([H])[H])C([H])([H])O5)o3)c([H])c2[H])c(C#N)c1[H]


 34 38  0  0  0  0  0  0  0  0999 V2000
  -86.2933   33.5132   -1.9039 C   0  0  0  0  0  0  0  0  0  0  0  0
  -86.7235   33.3844   -0.6497 N   0  0  0  0  0  0  0  0  0  0  0  0
  -85.6982   33.0526    0.1043 N   0  0  0  0  0  0  0  0  0  0  0  0
  -84.6135   32.9701   -0.6705 C   0  0  0  0  0  0  0  0  0  0  0  0
  -85.0327   33.2637   -1.9043 O   0  0  0  0  0  0  0  0  0  0  0  0
  -89.3976   37.1843   -5.6907 C   0  0  0  0  0  0  0  0  0  0  0  0
  -89.2641   36.2112   -6.8531 C   0  0  0  0  0  0  0  0  0  0  0  0
  -89.5062   34.8991   -6.3091 O   0  0  0  0  0  0  0  0  0  0  0  0
  -88.7229   34.5318   -5.2295 C   0  0  0  0  0  0  0  0  0  0  0  0
  -88.5886   33.1902   -4.8591 C   0  0  0  0  0  0  0  0  0  0  0  0
  -87.7904   32.9003   -3.7717 C   0  0  0  0  0  0  0  0  0  0  0  0
  -87.1365   33.8764   -3.0565 C   0  0  0  0  0  0  0  0  0  0  0  0
  -87.2825   35.1733   -3.4354 C   0  0  0  0  0  0  0  0  0  0  0  0
  -88.0754   35.5243   -4.5251 C   0  0  0  0  0  0  0  0  0  0  0  0
  -88.2079   36.8554   -4.8917 O   0  0  0  0  0  0  0  0  0  0  0  0
  -89.2961   38.6150   -6.0904 C   0  0  0  0  0  0  0  0  0  0  0  0
  -87.5235   39.5924   -7.3208 C   0  0  0  0  0  0  0  0  0  0  0  0
  -88.1230   39.2286   -6.1807 O   0  0  0  0  0  0  0  0  0  0  0  0
  -82.9577   32.5596   -0.1899 S   0  0  0  0  0  0  0  0  0  0  0  0
  -82.8552   31.3480    1.1315 C   0  0  0  0  0  0  0  0  0  0  0  0
  -84.0564   30.4942    1.2269 C   0  0  0  0  0  0  0  0  0  0  0  0
  -84.4829   29.8296    0.0772 C   0  0  0  0  0  0  0  0  0  0  0  0
  -85.6092   29.0380    0.1047 C   0  0  0  0  0  0  0  0  0  0  0  0
  -86.3590   28.8617    1.2395 C   0  0  0  0  0  0  0  0  0  0  0  0
  -85.9319   29.5225    2.3743 C   0  0  0  0  0  0  0  0  0  0  0  0
  -84.8005   30.3200    2.3518 C   0  0  0  0  0  0  0  0  0  0  0  0
  -87.5488   28.0292    1.3237 C   0  0  0  0  0  0  0  0  0  0  0  0
  -87.5224   26.8258    2.0410 C   0  0  0  0  0  0  0  0  0  0  0  0
  -88.6404   26.0340    2.1422 C   0  0  0  0  0  0  0  0  0  0  0  0
  -89.8347   26.3792    1.5488 C   0  0  0  0  0  0  0  0  0  0  0  0
  -89.8764   27.5577    0.8408 C   0  0  0  0  0  0  0  0  0  0  0  0
  -88.7403   28.3669    0.7350 C   0  0  0  0  0  0  0  0  0  0  0  0
  -88.8295   29.5831   -0.0286 C   0  0  0  0  0  0  0  0  0  0  0  0
  -88.8827   30.5594   -0.6609 N   0  0  0  0  0  0  0  0  0  0  0  0
 17 18  1  0  0  0
 18 16  1  0  0  0
 16  6  1  0  0  0
  6  7  1  0  0  0
  7  8  1  0  0  0
  8  9  1  0  0  0
  9 10  2  0  0  0
 10 11  1  0  0  0
 11 12  2  0  0  0
 12  1  1  0  0  0
  1  2  2  0  0  0
  2  3  1  0  0  0
  3  4  2  0  0  0
  4 19  1  0  0  0
 19 20  1  0  0  0
 20 21  1  0  0  0
 21 22  2  0  0  0
 22 23  1  0  0  0
 23 24  2  0  0  0
 24 27  1  0  0  0
 27 28  2  0  0  0
 28 29  1  0  0  0
 29 30  2  0  0  0
 30 31  1  0  0  0
 31 32  2  0  0  0
 32 33  1  0  0  0
 33 34  3  0  0  0
 24 25  1  0  0  0
 25 26  2  0  0  0
  4  5  1  0  0  0
 12 13  1  0  0  0
 13 14  2  0  0  0
 14 15  1  0  0  0
 15  6  1  0  0  0
 14  9  1  0  0  0
  5  1  1  0  0  0
 26 21  1  0  0  0
 32 27  1  0  0  0
M  END
> <minimizedAffinity>
-7.99744

> <CNNscore>
0.3763348162

> <CNNaffinity>
6.5716657639

> <CNN_VS>
2.4731466770

> <CNNaffinity_variance>
0.2833288014

$$$$
[H]c1c([H])c([H])c(-c2c([H])c([H])c(C([H])([H])Sc3nnc(-c4c([H])c([H])c5c(c4[H])O[C@@]([H])(C([H])([H])OC([H])([H])[H])C([H])([H])O5)o3)c([H])c2[H])c(C#N)c1[H]


 34 38  0  0  0  0  0  0  0  0999 V2000
  -90.0305   29.6804   -0.6627 C   0  0  0  0  0  0  0  0  0  0  0  0
  -91.3436   29.5361   -0.4903 N   0  0  0  0  0  0  0  0  0  0  0  0
  -91.5378   28.6643    0.4751 N   0  0  0  0  0  0  0  0  0  0  0  0
  -90.3470   28.2527    0.9182 C   0  0  0  0  0  0  0  0  0  0  0  0
  -89.4458   28.9098    0.1833 O   0  0  0  0  0  0  0  0  0  0  0  0
  -88.9755   34.8757   -3.7203 C   0  0  0  0  0  0  0  0  0  0  0  0
  -87.5497   34.4663   -4.0598 C   0  0  0  0  0  0  0  0  0  0  0  0
  -87.6092   33.0771   -4.4375 O   0  0  0  0  0  0  0  0  0  0  0  0
  -88.1934   32.2200   -3.5220 C   0  0  0  0  0  0  0  0  0  0  0  0
  -87.9790   30.8398   -3.5873 C   0  0  0  0  0  0  0  0  0  0  0  0
  -88.5947   30.0481   -2.6398 C   0  0  0  0  0  0  0  0  0  0  0  0
  -89.3979   30.5699   -1.6526 C   0  0  0  0  0  0  0  0  0  0  0  0
  -89.5916   31.9143   -1.6096 C   0  0  0  0  0  0  0  0  0  0  0  0
  -88.9951   32.7618   -2.5400 C   0  0  0  0  0  0  0  0  0  0  0  0
  -89.2084   34.1307   -2.4743 O   0  0  0  0  0  0  0  0  0  0  0  0
  -89.1285   36.3258   -3.4189 C   0  0  0  0  0  0  0  0  0  0  0  0
  -87.9747   38.3844   -3.2146 C   0  0  0  0  0  0  0  0  0  0  0  0
  -88.2280   37.2158   -3.8159 O   0  0  0  0  0  0  0  0  0  0  0  0
  -90.0063   27.0837    2.2061 S   0  0  0  0  0  0  0  0  0  0  0  0
  -88.3133   26.4851    2.2257 C   0  0  0  0  0  0  0  0  0  0  0  0
  -87.3347   27.5058    1.8001 C   0  0  0  0  0  0  0  0  0  0  0  0
  -86.9746   28.4933    2.7168 C   0  0  0  0  0  0  0  0  0  0  0  0
  -86.0828   29.4818    2.3652 C   0  0  0  0  0  0  0  0  0  0  0  0
  -85.5103   29.5497    1.1208 C   0  0  0  0  0  0  0  0  0  0  0  0
  -85.8710   28.5696    0.2175 C   0  0  0  0  0  0  0  0  0  0  0  0
  -86.7676   27.5739    0.5658 C   0  0  0  0  0  0  0  0  0  0  0  0
  -84.5564   30.5655    0.7035 C   0  0  0  0  0  0  0  0  0  0  0  0
  -84.9823   31.6760   -0.0371 C   0  0  0  0  0  0  0  0  0  0  0  0
  -84.0975   32.6516   -0.4279 C   0  0  0  0  0  0  0  0  0  0  0  0
  -82.7575   32.5887   -0.1144 C   0  0  0  0  0  0  0  0  0  0  0  0
  -82.3240   31.5043    0.6121 C   0  0  0  0  0  0  0  0  0  0  0  0
  -83.2214   30.5086    1.0119 C   0  0  0  0  0  0  0  0  0  0  0  0
  -82.7175   29.3861    1.7577 C   0  0  0  0  0  0  0  0  0  0  0  0
  -82.2868   28.4878    2.3604 N   0  0  0  0  0  0  0  0  0  0  0  0
 17 18  1  0  0  0
 18 16  1  0  0  0
 16  6  1  0  0  0
  6  7  1  0  0  0
  7  8  1  0  0  0
  8  9  1  0  0  0
  9 10  2  0  0  0
 10 11  1  0  0  0
 11 12  2  0  0  0
 12  1  1  0  0  0
  1  2  2  0  0  0
  2  3  1  0  0  0
  3  4  2  0  0  0
  4 19  1  0  0  0
 19 20  1  0  0  0
 20 21  1  0  0  0
 21 22  2  0  0  0
 22 23  1  0  0  0
 23 24  2  0  0  0
 24 27  1  0  0  0
 27 28  2  0  0  0
 28 29  1  0  0  0
 29 30  2  0  0  0
 30 31  1  0  0  0
 31 32  2  0  0  0
 32 33  1  0  0  0
 33 34  3  0  0  0
 24 25  1  0  0  0
 25 26  2  0  0  0
  4  5  1  0  0  0
 12 13  1  0  0  0
 13 14  2  0  0  0
 14 15  1  0  0  0
 15  6  1  0  0  0
 14  9  1  0  0  0
  5  1  1  0  0  0
 26 21  1  0  0  0
 32 27  1  0  0  0
M  END
> <minimizedAffinity>
-8.80606

> <CNNscore>
0.2223897129

> <CNNaffinity>
6.7648744583

> <CNN_VS>
1.5044385195

> <CNNaffinity_variance>
0.1415358633

$$$$
[H]c1c([H])c([H])c(-c2c([H])c([H])c(C([H])([H])Sc3nnc(-c4c([H])c([H])c5c(c4[H])O[C@@]([H])(C([H])([H])OC([H])([H])[H])C([H])([H])O5)o3)c([H])c2[H])c(C#N)c1[H]


 34 38  0  0  0  0  0  0  0  0999 V2000
  -86.6279   33.4617   -1.8845 C   0  0  0  0  0  0  0  0  0  0  0  0
  -86.9838   33.3517   -0.6054 N   0  0  0  0  0  0  0  0  0  0  0  0
  -85.9015   33.1142    0.1032 N   0  0  0  0  0  0  0  0  0  0  0  0
  -84.8549   33.0730   -0.7255 C   0  0  0  0  0  0  0  0  0  0  0  0
  -85.3553   33.2936   -1.9441 O   0  0  0  0  0  0  0  0  0  0  0  0
  -91.5964   32.7604   -5.3881 C   0  0  0  0  0  0  0  0  0  0  0  0
  -91.5422   34.2021   -5.8720 C   0  0  0  0  0  0  0  0  0  0  0  0
  -90.1558   34.4827   -6.1461 O   0  0  0  0  0  0  0  0  0  0  0  0
  -89.2690   34.2469   -5.1106 C   0  0  0  0  0  0  0  0  0  0  0  0
  -87.9930   34.8186   -5.1096 C   0  0  0  0  0  0  0  0  0  0  0  0
  -87.1638   34.5383   -4.0431 C   0  0  0  0  0  0  0  0  0  0  0  0
  -87.5512   33.7275   -3.0017 C   0  0  0  0  0  0  0  0  0  0  0  0
  -88.7962   33.1830   -3.0250 C   0  0  0  0  0  0  0  0  0  0  0  0
  -89.6755   33.4316   -4.0760 C   0  0  0  0  0  0  0  0  0  0  0  0
  -90.9410   32.8640   -4.0760 O   0  0  0  0  0  0  0  0  0  0  0  0
  -92.9786   32.2523   -5.1675 C   0  0  0  0  0  0  0  0  0  0  0  0
  -92.4683   29.9473   -5.3607 C   0  0  0  0  0  0  0  0  0  0  0  0
  -93.3033   30.9915   -5.4233 O   0  0  0  0  0  0  0  0  0  0  0  0
  -83.1531   32.7875   -0.3209 S   0  0  0  0  0  0  0  0  0  0  0  0
  -82.8981   31.5356    0.9411 C   0  0  0  0  0  0  0  0  0  0  0  0
  -84.0576   30.6360    1.1051 C   0  0  0  0  0  0  0  0  0  0  0  0
  -84.4860   29.9074   -0.0044 C   0  0  0  0  0  0  0  0  0  0  0  0
  -85.5754   29.0703    0.0872 C   0  0  0  0  0  0  0  0  0  0  0  0
  -86.2854   28.9086    1.2494 C   0  0  0  0  0  0  0  0  0  0  0  0
  -85.8568   29.6328    2.3442 C   0  0  0  0  0  0  0  0  0  0  0  0
  -84.7624   30.4763    2.2573 C   0  0  0  0  0  0  0  0  0  0  0  0
  -87.4349   28.0303    1.4011 C   0  0  0  0  0  0  0  0  0  0  0  0
  -87.3359   26.8589    2.1637 C   0  0  0  0  0  0  0  0  0  0  0  0
  -88.4150   26.0249    2.3287 C   0  0  0  0  0  0  0  0  0  0  0  0
  -89.6393   26.2949    1.7577 C   0  0  0  0  0  0  0  0  0  0  0  0
  -89.7522   27.4411    1.0059 C   0  0  0  0  0  0  0  0  0  0  0  0
  -88.6559   28.2930    0.8352 C   0  0  0  0  0  0  0  0  0  0  0  0
  -88.8194   29.4726    0.0276 C   0  0  0  0  0  0  0  0  0  0  0  0
  -88.9639   30.4381   -0.6070 N   0  0  0  0  0  0  0  0  0  0  0  0
 17 18  1  0  0  0
 18 16  1  0  0  0
 16  6  1  0  0  0
  6  7  1  0  0  0
  7  8  1  0  0  0
  8  9  1  0  0  0
  9 10  2  0  0  0
 10 11  1  0  0  0
 11 12  2  0  0  0
 12  1  1  0  0  0
  1  2  2  0  0  0
  2  3  1  0  0  0
  3  4  2  0  0  0
  4 19  1  0  0  0
 19 20  1  0  0  0
 20 21  1  0  0  0
 21 22  2  0  0  0
 22 23  1  0  0  0
 23 24  2  0  0  0
 24 27  1  0  0  0
 27 28  2  0  0  0
 28 29  1  0  0  0
 29 30  2  0  0  0
 30 31  1  0  0  0
 31 32  2  0  0  0
 32 33  1  0  0  0
 33 34  3  0  0  0
 24 25  1  0  0  0
 25 26  2  0  0  0
  4  5  1  0  0  0
 12 13  1  0  0  0
 13 14  2  0  0  0
 14 15  1  0  0  0
 15  6  1  0  0  0
 14  9  1  0  0  0
  5  1  1  0  0  0
 26 21  1  0  0  0
 32 27  1  0  0  0
M  END
> <minimizedAffinity>
-7.97452

> <CNNscore>
0.2167875469

> <CNNaffinity>
6.3929152489

> <CNN_VS>
1.3859044313

> <CNNaffinity_variance>
0.2751769125

$$$$
[H]c1c([H])c([H])c(-c2c([H])c([H])c(C([H])([H])Sc3nnc(-c4c([H])c([H])c5c(c4[H])O[C@@]([H])(C([H])([H])OC([H])([H])[H])C([H])([H])O5)o3)c([H])c2[H])c(C#N)c1[H]


 34 38  0  0  0  0  0  0  0  0999 V2000
  -91.2314   28.8608   -0.2324 C   0  0  0  0  0  0  0  0  0  0  0  0
  -92.0299   28.4269   -1.2065 N   0  0  0  0  0  0  0  0  0  0  0  0
  -91.9312   29.2593   -2.2201 N   0  0  0  0  0  0  0  0  0  0  0  0
  -91.0686   30.2245   -1.8912 C   0  0  0  0  0  0  0  0  0  0  0  0
  -90.6629   29.9340   -0.6522 O   0  0  0  0  0  0  0  0  0  0  0  0
  -90.7023   24.2296    3.7331 C   0  0  0  0  0  0  0  0  0  0  0  0
  -89.9065   25.0740    4.7178 C   0  0  0  0  0  0  0  0  0  0  0  0
  -90.5554   26.3597    4.7613 O   0  0  0  0  0  0  0  0  0  0  0  0
  -90.7264   26.9987    3.5462 C   0  0  0  0  0  0  0  0  0  0  0  0
  -90.9832   28.3718    3.4832 C   0  0  0  0  0  0  0  0  0  0  0  0
  -91.1421   28.9394    2.2357 C   0  0  0  0  0  0  0  0  0  0  0  0
  -91.0564   28.2054    1.0757 C   0  0  0  0  0  0  0  0  0  0  0  0
  -90.8062   26.8724    1.1623 C   0  0  0  0  0  0  0  0  0  0  0  0
  -90.6369   26.2461    2.3946 C   0  0  0  0  0  0  0  0  0  0  0  0
  -90.3821   24.8841    2.4560 O   0  0  0  0  0  0  0  0  0  0  0  0
  -90.2441   22.8155    3.6472 C   0  0  0  0  0  0  0  0  0  0  0  0
  -90.3964   20.9828    2.1542 C   0  0  0  0  0  0  0  0  0  0  0  0
  -90.9278   21.9048    2.9660 O   0  0  0  0  0  0  0  0  0  0  0  0
  -90.5541   31.6087   -2.8712 S   0  0  0  0  0  0  0  0  0  0  0  0
  -88.8306   31.5537   -3.3726 C   0  0  0  0  0  0  0  0  0  0  0  0
  -87.9496   30.9578   -2.3481 C   0  0  0  0  0  0  0  0  0  0  0  0
  -87.5070   31.7739   -1.3072 C   0  0  0  0  0  0  0  0  0  0  0  0
  -86.6665   31.2754   -0.3372 C   0  0  0  0  0  0  0  0  0  0  0  0
  -86.2269   29.9762   -0.3391 C   0  0  0  0  0  0  0  0  0  0  0  0
  -86.6682   29.1734   -1.3723 C   0  0  0  0  0  0  0  0  0  0  0  0
  -87.5128   29.6699   -2.3504 C   0  0  0  0  0  0  0  0  0  0  0  0
  -85.3486   29.3987    0.6663 C   0  0  0  0  0  0  0  0  0  0  0  0
  -85.7471   28.2664    1.3892 C   0  0  0  0  0  0  0  0  0  0  0  0
  -84.9250   27.6999    2.3328 C   0  0  0  0  0  0  0  0  0  0  0  0
  -83.6773   28.2114    2.6145 C   0  0  0  0  0  0  0  0  0  0  0  0
  -83.2719   29.3230    1.9132 C   0  0  0  0  0  0  0  0  0  0  0  0
  -84.1059   29.9032    0.9517 C   0  0  0  0  0  0  0  0  0  0  0  0
  -83.6433   31.0738    0.2548 C   0  0  0  0  0  0  0  0  0  0  0  0
  -83.2926   32.0265   -0.3155 N   0  0  0  0  0  0  0  0  0  0  0  0
 17 18  1  0  0  0
 18 16  1  0  0  0
 16  6  1  0  0  0
  6  7  1  0  0  0
  7  8  1  0  0  0
  8  9  1  0  0  0
  9 10  2  0  0  0
 10 11  1  0  0  0
 11 12  2  0  0  0
 12  1  1  0  0  0
  1  2  2  0  0  0
  2  3  1  0  0  0
  3  4  2  0  0  0
  4 19  1  0  0  0
 19 20  1  0  0  0
 20 21  1  0  0  0
 21 22  2  0  0  0
 22 23  1  0  0  0
 23 24  2  0  0  0
 24 27  1  0  0  0
 27 28  2  0  0  0
 28 29  1  0  0  0
 29 30  2  0  0  0
 30 31  1  0  0  0
 31 32  2  0  0  0
 32 33  1  0  0  0
 33 34  3  0  0  0
 24 25  1  0  0  0
 25 26  2  0  0  0
  4  5  1  0  0  0
 12 13  1  0  0  0
 13 14  2  0  0  0
 14 15  1  0  0  0
 15  6  1  0  0  0
 14  9  1  0  0  0
  5  1  1  0  0  0
 26 21  1  0  0  0
 32 27  1  0  0  0
M  END
> <minimizedAffinity>
-9.56552

> <CNNscore>
0.1930178106

> <CNNaffinity>
6.4693207741

> <CNN_VS>
1.2486941814

> <CNNaffinity_variance>
0.2615546882

$$$$
[H]c1c([H])c([H])c(-c2c([H])c([H])c(C([H])([H])Sc3nnc(-c4c([H])c([H])c5c(c4[H])O[C@@]([H])(C([H])([H])OC([H])([H])[H])C([H])([H])O5)o3)c([H])c2[H])c(C#N)c1[H]


 34 38  0  0  0  0  0  0  0  0999 V2000
  -89.4515   29.7240   -2.1746 C   0  0  0  0  0  0  0  0  0  0  0  0
  -89.7757   28.9526   -3.2112 N   0  0  0  0  0  0  0  0  0  0  0  0
  -90.2522   27.8184   -2.7460 N   0  0  0  0  0  0  0  0  0  0  0  0
  -90.2316   27.8674   -1.4115 C   0  0  0  0  0  0  0  0  0  0  0  0
  -89.7280   29.0662   -1.1059 O   0  0  0  0  0  0  0  0  0  0  0  0
  -87.6733   34.9174   -4.8802 C   0  0  0  0  0  0  0  0  0  0  0  0
  -87.8279   35.7192   -3.5961 C   0  0  0  0  0  0  0  0  0  0  0  0
  -87.2818   34.9015   -2.5429 O   0  0  0  0  0  0  0  0  0  0  0  0
  -87.8049   33.6259   -2.4269 C   0  0  0  0  0  0  0  0  0  0  0  0
  -87.6480   32.8863   -1.2507 C   0  0  0  0  0  0  0  0  0  0  0  0
  -88.1973   31.6214   -1.2087 C   0  0  0  0  0  0  0  0  0  0  0  0
  -88.8815   31.0793   -2.2717 C   0  0  0  0  0  0  0  0  0  0  0  0
  -89.0208   31.8173   -3.4044 C   0  0  0  0  0  0  0  0  0  0  0  0
  -88.4873   33.0999   -3.5031 C   0  0  0  0  0  0  0  0  0  0  0  0
  -88.6436   33.8328   -4.6702 O   0  0  0  0  0  0  0  0  0  0  0  0
  -88.0793   35.6604   -6.1049 C   0  0  0  0  0  0  0  0  0  0  0  0
  -86.8372   37.5613   -6.7793 C   0  0  0  0  0  0  0  0  0  0  0  0
  -87.1870   36.2728   -6.8727 O   0  0  0  0  0  0  0  0  0  0  0  0
  -90.7549   26.6209   -0.2654 S   0  0  0  0  0  0  0  0  0  0  0  0
  -89.4678   26.0700    0.8592 C   0  0  0  0  0  0  0  0  0  0  0  0
  -88.2789   26.9459    0.8500 C   0  0  0  0  0  0  0  0  0  0  0  0
  -87.9997   27.6867    1.9983 C   0  0  0  0  0  0  0  0  0  0  0  0
  -86.9163   28.5355    2.0364 C   0  0  0  0  0  0  0  0  0  0  0  0
  -86.0683   28.6970    0.9706 C   0  0  0  0  0  0  0  0  0  0  0  0
  -86.3501   27.9613   -0.1635 C   0  0  0  0  0  0  0  0  0  0  0  0
  -87.4385   27.1069   -0.2071 C   0  0  0  0  0  0  0  0  0  0  0  0
  -84.9058   29.5713    0.9636 C   0  0  0  0  0  0  0  0  0  0  0  0
  -84.9221   30.7659    0.2314 C   0  0  0  0  0  0  0  0  0  0  0  0
  -83.8383   31.6100    0.2243 C   0  0  0  0  0  0  0  0  0  0  0  0
  -82.6896   31.3279    0.9306 C   0  0  0  0  0  0  0  0  0  0  0  0
  -82.6583   30.1586    1.6542 C   0  0  0  0  0  0  0  0  0  0  0  0
  -83.7596   29.2961    1.6640 C   0  0  0  0  0  0  0  0  0  0  0  0
  -83.6734   28.0776    2.4242 C   0  0  0  0  0  0  0  0  0  0  0  0
  -83.5837   27.1007    3.0514 N   0  0  0  0  0  0  0  0  0  0  0  0
 17 18  1  0  0  0
 18 16  1  0  0  0
 16  6  1  0  0  0
  6  7  1  0  0  0
  7  8  1  0  0  0
  8  9  1  0  0  0
  9 10  2  0  0  0
 10 11  1  0  0  0
 11 12  2  0  0  0
 12  1  1  0  0  0
  1  2  2  0  0  0
  2  3  1  0  0  0
  3  4  2  0  0  0
  4 19  1  0  0  0
 19 20  1  0  0  0
 20 21  1  0  0  0
 21 22  2  0  0  0
 22 23  1  0  0  0
 23 24  2  0  0  0
 24 27  1  0  0  0
 27 28  2  0  0  0
 28 29  1  0  0  0
 29 30  2  0  0  0
 30 31  1  0  0  0
 31 32  2  0  0  0
 32 33  1  0  0  0
 33 34  3  0  0  0
 24 25  1  0  0  0
 25 26  2  0  0  0
  4  5  1  0  0  0
 12 13  1  0  0  0
 13 14  2  0  0  0
 14 15  1  0  0  0
 15  6  1  0  0  0
 14  9  1  0  0  0
  5  1  1  0  0  0
 26 21  1  0  0  0
 32 27  1  0  0  0
M  END
> <minimizedAffinity>
-9.60274

> <CNNscore>
0.1919163465

> <CNNaffinity>
6.7864770889

> <CNN_VS>
1.3024358749

> <CNNaffinity_variance>
0.1320717186

$$$$
[H]c1c([H])c([H])c(-c2c([H])c([H])c(C([H])([H])Sc3nnc(-c4c([H])c([H])c5c(c4[H])O[C@@]([H])(C([H])([H])OC([H])([H])[H])C([H])([H])O5)o3)c([H])c2[H])c(C#N)c1[H]


 34 38  0  0  0  0  0  0  0  0999 V2000
  -85.7181   31.9027   -0.3938 C   0  0  0  0  0  0  0  0  0  0  0  0
  -84.7309   32.7930   -0.3058 N   0  0  0  0  0  0  0  0  0  0  0  0
  -85.0297   33.8153   -1.0775 N   0  0  0  0  0  0  0  0  0  0  0  0
  -86.2086   33.5760   -1.6576 C   0  0  0  0  0  0  0  0  0  0  0  0
  -86.5943   32.3807   -1.2031 O   0  0  0  0  0  0  0  0  0  0  0  0
  -88.2561   27.1176    2.4548 C   0  0  0  0  0  0  0  0  0  0  0  0
  -87.0884   26.2053    2.1084 C   0  0  0  0  0  0  0  0  0  0  0  0
  -85.8937   26.9809    2.3255 O   0  0  0  0  0  0  0  0  0  0  0  0
  -85.8233   28.1924    1.6612 C   0  0  0  0  0  0  0  0  0  0  0  0
  -84.6006   28.8467    1.4818 C   0  0  0  0  0  0  0  0  0  0  0  0
  -84.6087   30.0512    0.8092 C   0  0  0  0  0  0  0  0  0  0  0  0
  -85.7643   30.6146    0.3202 C   0  0  0  0  0  0  0  0  0  0  0  0
  -86.9406   29.9601    0.5070 C   0  0  0  0  0  0  0  0  0  0  0  0
  -86.9922   28.7411    1.1784 C   0  0  0  0  0  0  0  0  0  0  0  0
  -88.2056   28.0929    1.3556 O   0  0  0  0  0  0  0  0  0  0  0  0
  -89.5820   26.4421    2.4032 C   0  0  0  0  0  0  0  0  0  0  0  0
  -90.8106   26.3201    4.4248 C   0  0  0  0  0  0  0  0  0  0  0  0
  -90.5782   26.8074    3.2000 O   0  0  0  0  0  0  0  0  0  0  0  0
  -87.0955   34.6078   -2.7935 S   0  0  0  0  0  0  0  0  0  0  0  0
  -88.8335   34.1889   -2.9634 C   0  0  0  0  0  0  0  0  0  0  0  0
  -89.0895   32.7374   -2.8716 C   0  0  0  0  0  0  0  0  0  0  0  0
  -89.7838   32.2618   -1.7593 C   0  0  0  0  0  0  0  0  0  0  0  0
  -90.0308   30.9152   -1.6127 C   0  0  0  0  0  0  0  0  0  0  0  0
  -89.6173   29.9853   -2.5323 C   0  0  0  0  0  0  0  0  0  0  0  0
  -88.9301   30.4622   -3.6309 C   0  0  0  0  0  0  0  0  0  0  0  0
  -88.6787   31.8151   -3.7828 C   0  0  0  0  0  0  0  0  0  0  0  0
  -89.8617   28.5551   -2.4296 C   0  0  0  0  0  0  0  0  0  0  0  0
  -88.8970   27.7101   -1.8651 C   0  0  0  0  0  0  0  0  0  0  0  0
  -89.1166   26.3591   -1.7479 C   0  0  0  0  0  0  0  0  0  0  0  0
  -90.2864   25.7706   -2.1757 C   0  0  0  0  0  0  0  0  0  0  0  0
  -91.2432   26.5871   -2.7323 C   0  0  0  0  0  0  0  0  0  0  0  0
  -91.0236   27.9632   -2.8538 C   0  0  0  0  0  0  0  0  0  0  0  0
  -92.0484   28.7737   -3.4564 C   0  0  0  0  0  0  0  0  0  0  0  0
  -92.8756   29.4162   -3.9650 N   0  0  0  0  0  0  0  0  0  0  0  0
 17 18  1  0  0  0
 18 16  1  0  0  0
 16  6  1  0  0  0
  6  7  1  0  0  0
  7  8  1  0  0  0
  8  9  1  0  0  0
  9 10  2  0  0  0
 10 11  1  0  0  0
 11 12  2  0  0  0
 12  1  1  0  0  0
  1  2  2  0  0  0
  2  3  1  0  0  0
  3  4  2  0  0  0
  4 19  1  0  0  0
 19 20  1  0  0  0
 20 21  1  0  0  0
 21 22  2  0  0  0
 22 23  1  0  0  0
 23 24  2  0  0  0
 24 27  1  0  0  0
 27 28  2  0  0  0
 28 29  1  0  0  0
 29 30  2  0  0  0
 30 31  1  0  0  0
 31 32  2  0  0  0
 32 33  1  0  0  0
 33 34  3  0  0  0
 24 25  1  0  0  0
 25 26  2  0  0  0
  4  5  1  0  0  0
 12 13  1  0  0  0
 13 14  2  0  0  0
 14 15  1  0  0  0
 15  6  1  0  0  0
 14  9  1  0  0  0
  5  1  1  0  0  0
 26 21  1  0  0  0
 32 27  1  0  0  0
M  END
> <minimizedAffinity>
-7.65157

> <CNNscore>
0.1905164570

> <CNNaffinity>
6.6131057739

> <CNN_VS>
1.2599054575

> <CNNaffinity_variance>
0.2588888705

$$$$
[H]c1c([H])c([H])c(-c2c([H])c([H])c(C([H])([H])Sc3nnc(-c4c([H])c([H])c5c(c4[H])O[C@@]([H])(C([H])([H])OC([H])([H])[H])C([H])([H])O5)o3)c([H])c2[H])c(C#N)c1[H]


 34 38  0  0  0  0  0  0  0  0999 V2000
  -87.2409   33.5206   -2.2265 C   0  0  0  0  0  0  0  0  0  0  0  0
  -87.3331   34.7424   -2.7495 N   0  0  0  0  0  0  0  0  0  0  0  0
  -88.4379   34.8025   -3.4607 N   0  0  0  0  0  0  0  0  0  0  0  0
  -89.0501   33.6176   -3.3906 C   0  0  0  0  0  0  0  0  0  0  0  0
  -88.2710   32.8583   -2.6157 O   0  0  0  0  0  0  0  0  0  0  0  0
  -84.5823   30.4320    2.3392 C   0  0  0  0  0  0  0  0  0  0  0  0
  -83.2387   30.3991    1.6255 C   0  0  0  0  0  0  0  0  0  0  0  0
  -83.0501   31.7119    1.0622 O   0  0  0  0  0  0  0  0  0  0  0  0
  -84.0640   32.1761    0.2432 C   0  0  0  0  0  0  0  0  0  0  0  0
  -83.8459   33.2328   -0.6461 C   0  0  0  0  0  0  0  0  0  0  0  0
  -84.9044   33.6410   -1.4312 C   0  0  0  0  0  0  0  0  0  0  0  0
  -86.1438   33.0482   -1.3637 C   0  0  0  0  0  0  0  0  0  0  0  0
  -86.3316   32.0230   -0.4915 C   0  0  0  0  0  0  0  0  0  0  0  0
  -85.2990   31.5691    0.3254 C   0  0  0  0  0  0  0  0  0  0  0  0
  -85.5163   30.5208    1.2072 O   0  0  0  0  0  0  0  0  0  0  0  0
  -84.8944   29.1846    3.0899 C   0  0  0  0  0  0  0  0  0  0  0  0
  -83.3778   27.3750    2.8992 C   0  0  0  0  0  0  0  0  0  0  0  0
  -84.5356   27.9916    2.6330 O   0  0  0  0  0  0  0  0  0  0  0  0
  -90.5733   33.1293   -4.1539 S   0  0  0  0  0  0  0  0  0  0  0  0
  -90.6729   31.3786   -4.5411 C   0  0  0  0  0  0  0  0  0  0  0  0
  -90.2615   30.5140   -3.4168 C   0  0  0  0  0  0  0  0  0  0  0  0
  -89.0049   29.9118   -3.4768 C   0  0  0  0  0  0  0  0  0  0  0  0
  -88.5800   29.0790   -2.4660 C   0  0  0  0  0  0  0  0  0  0  0  0
  -89.3513   28.8007   -1.3666 C   0  0  0  0  0  0  0  0  0  0  0  0
  -90.5945   29.3995   -1.3131 C   0  0  0  0  0  0  0  0  0  0  0  0
  -91.0267   30.2372   -2.3270 C   0  0  0  0  0  0  0  0  0  0  0  0
  -88.9453   27.9378   -0.2683 C   0  0  0  0  0  0  0  0  0  0  0  0
  -88.3367   28.4802    0.8714 C   0  0  0  0  0  0  0  0  0  0  0  0
  -87.9592   27.6818    1.9236 C   0  0  0  0  0  0  0  0  0  0  0  0
  -88.1577   26.3186    1.9126 C   0  0  0  0  0  0  0  0  0  0  0  0
  -88.7538   25.7711    0.8005 C   0  0  0  0  0  0  0  0  0  0  0  0
  -89.1396   26.5804   -0.2732 C   0  0  0  0  0  0  0  0  0  0  0  0
  -89.7461   25.9593   -1.4207 C   0  0  0  0  0  0  0  0  0  0  0  0
  -90.2333   25.4343   -2.3387 N   0  0  0  0  0  0  0  0  0  0  0  0
 17 18  1  0  0  0
 18 16  1  0  0  0
 16  6  1  0  0  0
  6  7  1  0  0  0
  7  8  1  0  0  0
  8  9  1  0  0  0
  9 10  2  0  0  0
 10 11  1  0  0  0
 11 12  2  0  0  0
 12  1  1  0  0  0
  1  2  2  0  0  0
  2  3  1  0  0  0
  3  4  2  0  0  0
  4 19  1  0  0  0
 19 20  1  0  0  0
 20 21  1  0  0  0
 21 22  2  0  0  0
 22 23  1  0  0  0
 23 24  2  0  0  0
 24 27  1  0  0  0
 27 28  2  0  0  0
 28 29  1  0  0  0
 29 30  2  0  0  0
 30 31  1  0  0  0
 31 32  2  0  0  0
 32 33  1  0  0  0
 33 34  3  0  0  0
 24 25  1  0  0  0
 25 26  2  0  0  0
  4  5  1  0  0  0
 12 13  1  0  0  0
 13 14  2  0  0  0
 14 15  1  0  0  0
 15  6  1  0  0  0
 14  9  1  0  0  0
  5  1  1  0  0  0
 26 21  1  0  0  0
 32 27  1  0  0  0
M  END
> <minimizedAffinity>
-8.11328

> <CNNscore>
0.1878560930

> <CNNaffinity>
6.5420928001

> <CNN_VS>
1.2289719582

> <CNNaffinity_variance>
0.4484804273

$$$$
[H]c1c([H])c([H])c(-c2c([H])c([H])c(C([H])([H])Sc3nnc(-c4c([H])c([H])c5c(c4[H])O[C@@]([H])(C([H])([H])OC([H])([H])[H])C([H])([H])O5)o3)c([H])c2[H])c(C#N)c1[H]


 34 38  0  0  0  0  0  0  0  0999 V2000
  -85.8514   31.5055    0.0654 C   0  0  0  0  0  0  0  0  0  0  0  0
  -84.5491   31.7793    0.1288 N   0  0  0  0  0  0  0  0  0  0  0  0
  -83.9848   30.9073    0.9357 N   0  0  0  0  0  0  0  0  0  0  0  0
  -84.9287   30.0771    1.3869 C   0  0  0  0  0  0  0  0  0  0  0  0
  -86.0663   30.4879    0.8201 O   0  0  0  0  0  0  0  0  0  0  0  0
  -87.9445   35.9150   -3.6262 C   0  0  0  0  0  0  0  0  0  0  0  0
  -89.0772   35.0394   -4.1423 C   0  0  0  0  0  0  0  0  0  0  0  0
  -89.6149   34.3580   -2.9923 O   0  0  0  0  0  0  0  0  0  0  0  0
  -88.7100   33.6427   -2.2282 C   0  0  0  0  0  0  0  0  0  0  0  0
  -89.1404   32.6546   -1.3374 C   0  0  0  0  0  0  0  0  0  0  0  0
  -88.1800   31.9829   -0.6094 C   0  0  0  0  0  0  0  0  0  0  0  0
  -86.8373   32.2540   -0.7340 C   0  0  0  0  0  0  0  0  0  0  0  0
  -86.4431   33.2189   -1.6061 C   0  0  0  0  0  0  0  0  0  0  0  0
  -87.3686   33.9288   -2.3670 C   0  0  0  0  0  0  0  0  0  0  0  0
  -86.9406   34.9087   -3.2505 O   0  0  0  0  0  0  0  0  0  0  0  0
  -87.3417   36.7927   -4.6671 C   0  0  0  0  0  0  0  0  0  0  0  0
  -87.2927   36.8864   -7.0335 C   0  0  0  0  0  0  0  0  0  0  0  0
  -86.9956   36.3201   -5.8577 O   0  0  0  0  0  0  0  0  0  0  0  0
  -84.7397   28.7124    2.5018 S   0  0  0  0  0  0  0  0  0  0  0  0
  -85.5109   27.1915    1.9387 C   0  0  0  0  0  0  0  0  0  0  0  0
  -86.8072   27.4152    1.2676 C   0  0  0  0  0  0  0  0  0  0  0  0
  -86.8474   27.3424   -0.1246 C   0  0  0  0  0  0  0  0  0  0  0  0
  -88.0252   27.5639   -0.8025 C   0  0  0  0  0  0  0  0  0  0  0  0
  -89.2003   27.8619   -0.1610 C   0  0  0  0  0  0  0  0  0  0  0  0
  -89.1541   27.9330    1.2173 C   0  0  0  0  0  0  0  0  0  0  0  0
  -87.9723   27.7117    1.9035 C   0  0  0  0  0  0  0  0  0  0  0  0
  -90.4715   28.0937   -0.8289 C   0  0  0  0  0  0  0  0  0  0  0  0
  -90.8967   29.3989   -1.1098 C   0  0  0  0  0  0  0  0  0  0  0  0
  -92.0879   29.6357   -1.7519 C   0  0  0  0  0  0  0  0  0  0  0  0
  -92.9185   28.6110   -2.1491 C   0  0  0  0  0  0  0  0  0  0  0  0
  -92.5149   27.3239   -1.8801 C   0  0  0  0  0  0  0  0  0  0  0  0
  -91.3029   27.0783   -1.2264 C   0  0  0  0  0  0  0  0  0  0  0  0
  -90.9310   25.7153   -0.9541 C   0  0  0  0  0  0  0  0  0  0  0  0
  -90.6526   24.6084   -0.7237 N   0  0  0  0  0  0  0  0  0  0  0  0
 17 18  1  0  0  0
 18 16  1  0  0  0
 16  6  1  0  0  0
  6  7  1  0  0  0
  7  8  1  0  0  0
  8  9  1  0  0  0
  9 10  2  0  0  0
 10 11  1  0  0  0
 11 12  2  0  0  0
 12  1  1  0  0  0
  1  2  2  0  0  0
  2  3  1  0  0  0
  3  4  2  0  0  0
  4 19  1  0  0  0
 19 20  1  0  0  0
 20 21  1  0  0  0
 21 22  2  0  0  0
 22 23  1  0  0  0
 23 24  2  0  0  0
 24 27  1  0  0  0
 27 28  2  0  0  0
 28 29  1  0  0  0
 29 30  2  0  0  0
 30 31  1  0  0  0
 31 32  2  0  0  0
 32 33  1  0  0  0
 33 34  3  0  0  0
 24 25  1  0  0  0
 25 26  2  0  0  0
  4  5  1  0  0  0
 12 13  1  0  0  0
 13 14  2  0  0  0
 14 15  1  0  0  0
 15  6  1  0  0  0
 14  9  1  0  0  0
  5  1  1  0  0  0
 26 21  1  0  0  0
 32 27  1  0  0  0
M  END
> <minimizedAffinity>
-7.85833

> <CNNscore>
0.1699256897

> <CNNaffinity>
6.4643592834

> <CNN_VS>
1.0984606743

> <CNNaffinity_variance>
0.1463517398

$$$$
[H]c1c([H])c([H])c(C2([H])C([H])([H])[C@]2([H])N([H])C([H])([H])c2c([H])c([H])c(OC([H])([H])[H])c3c([H])c([H])c([H])c([H])c23)c([H])c1[H]


 24 27  0  0  0  0  0  0  0  0999 V2000
  -84.9187   31.1026    0.8020 C   0  0  0  0  0  0  0  0  0  0  0  0
  -85.8508   31.5854   -0.0823 C   0  0  0  0  0  0  0  0  0  0  0  0
  -86.8893   30.7999   -0.5628 C   0  0  0  0  0  0  0  0  0  0  0  0
  -87.0208   29.4893   -0.1623 C   0  0  0  0  0  0  0  0  0  0  0  0
  -86.0768   28.9902    0.7373 C   0  0  0  0  0  0  0  0  0  0  0  0
  -86.2174   27.6759    1.1327 C   0  0  0  0  0  0  0  0  0  0  0  0
  -85.2728   27.1959    2.0255 C   0  0  0  0  0  0  0  0  0  0  0  0
  -84.2453   27.9711    2.5020 C   0  0  0  0  0  0  0  0  0  0  0  0
  -84.1173   29.2822    2.0983 C   0  0  0  0  0  0  0  0  0  0  0  0
  -85.0589   29.7874    1.1980 C   0  0  0  0  0  0  0  0  0  0  0  0
  -82.8334   32.3072    0.4105 C   0  0  0  0  0  0  0  0  0  0  0  0
  -83.8746   31.9007    1.2821 O   0  0  0  0  0  0  0  0  0  0  0  0
  -88.1256   28.6206   -0.6494 C   0  0  0  0  0  0  0  0  0  0  0  0
  -89.3768   29.1953   -0.2641 N   0  0  0  0  0  0  0  0  0  0  0  0
  -90.0833   29.2043   -1.0413 H   0  0  0  0  0  0  0  0  0  0  0  0
  -89.9232   28.6524    0.9495 C   0  0  0  0  0  0  0  0  0  0  0  0
  -91.1318   27.7409    0.7069 C   0  0  0  0  0  0  0  0  0  0  0  0
  -89.8739   27.2229    1.2968 C   0  0  0  0  0  0  0  0  0  0  0  0
  -89.8398   26.8813    2.7384 C   0  0  0  0  0  0  0  0  0  0  0  0
  -89.4865   25.6436    3.2239 C   0  0  0  0  0  0  0  0  0  0  0  0
  -89.4627   25.3529    4.5598 C   0  0  0  0  0  0  0  0  0  0  0  0
  -89.7982   26.3093    5.4762 C   0  0  0  0  0  0  0  0  0  0  0  0
  -90.1570   27.5600    5.0214 C   0  0  0  0  0  0  0  0  0  0  0  0
  -90.1759   27.8380    3.6665 C   0  0  0  0  0  0  0  0  0  0  0  0
 11 12  1  0  0  0
 12  1  1  0  0  0
  1  2  2  0  0  0
  2  3  1  0  0  0
  3  4  2  0  0  0
  4 13  1  0  0  0
 13 14  1  0  0  0
 14 16  1  0  0  0
 16 17  1  0  0  0
 17 18  1  0  0  0
 18 19  1  0  0  0
 19 20  2  0  0  0
 20 21  1  0  0  0
 21 22  2  0  0  0
 22 23  1  0  0  0
 23 24  2  0  0  0
  4  5  1  0  0  0
  5  6  2  0  0  0
  6  7  1  0  0  0
  7  8  2  0  0  0
  8  9  1  0  0  0
  9 10  2  0  0  0
 10  1  1  0  0  0
 18 16  1  0  0  0
 24 19  1  0  0  0
 10  5  1  0  0  0
 14 15  1  0  0  0
M  END
> <minimizedAffinity>
-8.27006

> <CNNscore>
0.5797882080

> <CNNaffinity>
5.9220714569

> <CNN_VS>
3.4335472584

> <CNNaffinity_variance>
0.1606736183

$$$$
[H]c1c([H])c([H])c(C2([H])C([H])([H])[C@]2([H])N([H])C([H])([H])c2c([H])c([H])c(OC([H])([H])[H])c3c([H])c([H])c([H])c([H])c23)c([H])c1[H]


 24 27  0  0  0  0  0  0  0  0999 V2000
  -83.9814   29.7115    1.3157 C   0  0  0  0  0  0  0  0  0  0  0  0
  -85.1259   28.9632    1.4349 C   0  0  0  0  0  0  0  0  0  0  0  0
  -86.3390   29.3794    0.9043 C   0  0  0  0  0  0  0  0  0  0  0  0
  -86.4362   30.5760    0.2303 C   0  0  0  0  0  0  0  0  0  0  0  0
  -85.2765   31.3433    0.1045 C   0  0  0  0  0  0  0  0  0  0  0  0
  -85.3842   32.5405   -0.5728 C   0  0  0  0  0  0  0  0  0  0  0  0
  -84.2247   33.2900   -0.6890 C   0  0  0  0  0  0  0  0  0  0  0  0
  -83.0242   32.8801   -0.1652 C   0  0  0  0  0  0  0  0  0  0  0  0
  -82.9315   31.6819    0.5089 C   0  0  0  0  0  0  0  0  0  0  0  0
  -84.0886   30.9096    0.6382 C   0  0  0  0  0  0  0  0  0  0  0  0
  -82.6644   28.0125    2.4700 C   0  0  0  0  0  0  0  0  0  0  0  0
  -82.7621   29.2851    1.8533 O   0  0  0  0  0  0  0  0  0  0  0  0
  -87.7171   31.0499   -0.3590 C   0  0  0  0  0  0  0  0  0  0  0  0
  -87.9517   30.3562   -1.5869 N   0  0  0  0  0  0  0  0  0  0  0  0
  -88.7867   29.7202   -1.5482 H   0  0  0  0  0  0  0  0  0  0  0  0
  -87.9800   31.2066   -2.7455 C   0  0  0  0  0  0  0  0  0  0  0  0
  -89.2291   30.9994   -3.6100 C   0  0  0  0  0  0  0  0  0  0  0  0
  -88.9565   32.2915   -2.9356 C   0  0  0  0  0  0  0  0  0  0  0  0
  -88.5229   33.4525   -3.7482 C   0  0  0  0  0  0  0  0  0  0  0  0
  -87.4377   34.2399   -3.4405 C   0  0  0  0  0  0  0  0  0  0  0  0
  -87.0574   35.3065   -4.2068 C   0  0  0  0  0  0  0  0  0  0  0  0
  -87.7633   35.6301   -5.3312 C   0  0  0  0  0  0  0  0  0  0  0  0
  -88.8562   34.8602   -5.6667 C   0  0  0  0  0  0  0  0  0  0  0  0
  -89.2278   33.7842   -4.8807 C   0  0  0  0  0  0  0  0  0  0  0  0
 11 12  1  0  0  0
 12  1  1  0  0  0
  1  2  2  0  0  0
  2  3  1  0  0  0
  3  4  2  0  0  0
  4 13  1  0  0  0
 13 14  1  0  0  0
 14 16  1  0  0  0
 16 17  1  0  0  0
 17 18  1  0  0  0
 18 19  1  0  0  0
 19 20  2  0  0  0
 20 21  1  0  0  0
 21 22  2  0  0  0
 22 23  1  0  0  0
 23 24  2  0  0  0
  4  5  1  0  0  0
  5  6  2  0  0  0
  6  7  1  0  0  0
  7  8  2  0  0  0
  8  9  1  0  0  0
  9 10  2  0  0  0
 10  1  1  0  0  0
 18 16  1  0  0  0
 24 19  1  0  0  0
 10  5  1  0  0  0
 14 15  1  0  0  0
M  END
> <minimizedAffinity>
-8.07199

> <CNNscore>
0.4702893794

> <CNNaffinity>
5.6888527870

> <CNN_VS>
2.6754069328

> <CNNaffinity_variance>
0.3592212796

$$$$
[H]c1c([H])c([H])c(C2([H])C([H])([H])[C@]2([H])N([H])C([H])([H])c2c([H])c([H])c(OC([H])([H])[H])c3c([H])c([H])c([H])c([H])c23)c([H])c1[H]


 24 27  0  0  0  0  0  0  0  0999 V2000
  -85.1658   31.0473    0.9665 C   0  0  0  0  0  0  0  0  0  0  0  0
  -85.5070   29.7630    1.3103 C   0  0  0  0  0  0  0  0  0  0  0  0
  -86.6152   29.1240    0.7721 C   0  0  0  0  0  0  0  0  0  0  0  0
  -87.4224   29.7677   -0.1388 C   0  0  0  0  0  0  0  0  0  0  0  0
  -87.0824   31.0745   -0.4941 C   0  0  0  0  0  0  0  0  0  0  0  0
  -87.8973   31.7107   -1.4077 C   0  0  0  0  0  0  0  0  0  0  0  0
  -87.5463   33.0067   -1.7497 C   0  0  0  0  0  0  0  0  0  0  0  0
  -86.4507   33.6402   -1.2188 C   0  0  0  0  0  0  0  0  0  0  0  0
  -85.6458   32.9924   -0.3072 C   0  0  0  0  0  0  0  0  0  0  0  0
  -85.9809   31.6845    0.0524 C   0  0  0  0  0  0  0  0  0  0  0  0
  -82.7451   31.3324    1.0768 C   0  0  0  0  0  0  0  0  0  0  0  0
  -84.0468   31.6848    1.5134 O   0  0  0  0  0  0  0  0  0  0  0  0
  -88.6129   29.1115   -0.7428 C   0  0  0  0  0  0  0  0  0  0  0  0
  -89.7961   29.6549   -0.1521 N   0  0  0  0  0  0  0  0  0  0  0  0
  -90.5634   29.8260   -0.8486 H   0  0  0  0  0  0  0  0  0  0  0  0
  -90.2669   28.9274    0.9948 C   0  0  0  0  0  0  0  0  0  0  0  0
  -91.2930   27.8455    0.6379 C   0  0  0  0  0  0  0  0  0  0  0  0
  -89.9777   27.5036    1.2310 C   0  0  0  0  0  0  0  0  0  0  0  0
  -89.9171   27.0543    2.6419 C   0  0  0  0  0  0  0  0  0  0  0  0
  -90.2902   27.8355    3.7110 C   0  0  0  0  0  0  0  0  0  0  0  0
  -90.2250   27.3978    5.0047 C   0  0  0  0  0  0  0  0  0  0  0  0
  -89.7752   26.1374    5.2808 C   0  0  0  0  0  0  0  0  0  0  0  0
  -89.3936   25.3298    4.2311 C   0  0  0  0  0  0  0  0  0  0  0  0
  -89.4657   25.7877    2.9278 C   0  0  0  0  0  0  0  0  0  0  0  0
 11 12  1  0  0  0
 12  1  1  0  0  0
  1  2  2  0  0  0
  2  3  1  0  0  0
  3  4  2  0  0  0
  4 13  1  0  0  0
 13 14  1  0  0  0
 14 16  1  0  0  0
 16 17  1  0  0  0
 17 18  1  0  0  0
 18 19  1  0  0  0
 19 20  2  0  0  0
 20 21  1  0  0  0
 21 22  2  0  0  0
 22 23  1  0  0  0
 23 24  2  0  0  0
  4  5  1  0  0  0
  5  6  2  0  0  0
  6  7  1  0  0  0
  7  8  2  0  0  0
  8  9  1  0  0  0
  9 10  2  0  0  0
 10  1  1  0  0  0
 18 16  1  0  0  0
 24 19  1  0  0  0
 10  5  1  0  0  0
 14 15  1  0  0  0
M  END
> <minimizedAffinity>
-7.89520

> <CNNscore>
0.4639421701

> <CNNaffinity>
5.7804131508

> <CNN_VS>
2.6817774773

> <CNNaffinity_variance>
0.1871213764

$$$$
[H]c1c([H])c([H])c(C2([H])C([H])([H])[C@]2([H])N([H])C([H])([H])c2c([H])c([H])c(OC([H])([H])[H])c3c([H])c([H])c([H])c([H])c23)c([H])c1[H]


 24 27  0  0  0  0  0  0  0  0999 V2000
  -86.3231   29.6378    0.6342 C   0  0  0  0  0  0  0  0  0  0  0  0
  -87.3583   30.2649   -0.0133 C   0  0  0  0  0  0  0  0  0  0  0  0
  -87.2172   31.5198   -0.5892 C   0  0  0  0  0  0  0  0  0  0  0  0
  -86.0151   32.1882   -0.5287 C   0  0  0  0  0  0  0  0  0  0  0  0
  -84.9568   31.5573    0.1282 C   0  0  0  0  0  0  0  0  0  0  0  0
  -83.7563   32.2351    0.1831 C   0  0  0  0  0  0  0  0  0  0  0  0
  -82.7163   31.5956    0.8383 C   0  0  0  0  0  0  0  0  0  0  0  0
  -82.8537   30.3546    1.4082 C   0  0  0  0  0  0  0  0  0  0  0  0
  -84.0587   29.6894    1.3455 C   0  0  0  0  0  0  0  0  0  0  0  0
  -85.1217   30.3156    0.6895 C   0  0  0  0  0  0  0  0  0  0  0  0
  -87.2115   27.3673    0.5386 C   0  0  0  0  0  0  0  0  0  0  0  0
  -86.4731   28.3725    1.2121 O   0  0  0  0  0  0  0  0  0  0  0  0
  -85.8246   33.5300   -1.1417 C   0  0  0  0  0  0  0  0  0  0  0  0
  -85.7009   33.3833   -2.5585 N   0  0  0  0  0  0  0  0  0  0  0  0
  -85.6358   32.3808   -2.8651 H   0  0  0  0  0  0  0  0  0  0  0  0
  -86.6855   34.1105   -3.3121 C   0  0  0  0  0  0  0  0  0  0  0  0
  -87.7780   33.2082   -3.8978 C   0  0  0  0  0  0  0  0  0  0  0  0
  -88.0894   34.2535   -2.8933 C   0  0  0  0  0  0  0  0  0  0  0  0
  -88.7988   35.4809   -3.3250 C   0  0  0  0  0  0  0  0  0  0  0  0
  -90.0760   35.4875   -3.8359 C   0  0  0  0  0  0  0  0  0  0  0  0
  -90.7095   36.6342   -4.2276 C   0  0  0  0  0  0  0  0  0  0  0  0
  -90.0751   37.8396   -4.1199 C   0  0  0  0  0  0  0  0  0  0  0  0
  -88.7943   37.8665   -3.6116 C   0  0  0  0  0  0  0  0  0  0  0  0
  -88.1673   36.6974   -3.2198 C   0  0  0  0  0  0  0  0  0  0  0  0
 11 12  1  0  0  0
 12  1  1  0  0  0
  1  2  2  0  0  0
  2  3  1  0  0  0
  3  4  2  0  0  0
  4 13  1  0  0  0
 13 14  1  0  0  0
 14 16  1  0  0  0
 16 17  1  0  0  0
 17 18  1  0  0  0
 18 19  1  0  0  0
 19 20  2  0  0  0
 20 21  1  0  0  0
 21 22  2  0  0  0
 22 23  1  0  0  0
 23 24  2  0  0  0
  4  5  1  0  0  0
  5  6  2  0  0  0
  6  7  1  0  0  0
  7  8  2  0  0  0
  8  9  1  0  0  0
  9 10  2  0  0  0
 10  1  1  0  0  0
 18 16  1  0  0  0
 24 19  1  0  0  0
 10  5  1  0  0  0
 14 15  1  0  0  0
M  END
> <minimizedAffinity>
-8.60579

> <CNNscore>
0.4619437158

> <CNNaffinity>
5.5918855667

> <CNN_VS>
2.5831363201

> <CNNaffinity_variance>
0.1807181090

$$$$
[H]c1c([H])c([H])c(C2([H])C([H])([H])[C@]2([H])N([H])C([H])([H])c2c([H])c([H])c(OC([H])([H])[H])c3c([H])c([H])c([H])c([H])c23)c([H])c1[H]


 24 27  0  0  0  0  0  0  0  0999 V2000
  -88.7740   29.5271   -0.9301 C   0  0  0  0  0  0  0  0  0  0  0  0
  -87.5105   29.1474   -1.3085 C   0  0  0  0  0  0  0  0  0  0  0  0
  -86.7652   28.2315   -0.5792 C   0  0  0  0  0  0  0  0  0  0  0  0
  -87.2766   27.6647    0.5666 C   0  0  0  0  0  0  0  0  0  0  0  0
  -88.5614   28.0456    0.9585 C   0  0  0  0  0  0  0  0  0  0  0  0
  -89.0649   27.4719    2.1078 C   0  0  0  0  0  0  0  0  0  0  0  0
  -90.3409   27.8602    2.4831 C   0  0  0  0  0  0  0  0  0  0  0  0
  -91.0796   28.7656    1.7632 C   0  0  0  0  0  0  0  0  0  0  0  0
  -90.5638   29.3305    0.6172 C   0  0  0  0  0  0  0  0  0  0  0  0
  -89.2784   28.9534    0.2198 C   0  0  0  0  0  0  0  0  0  0  0  0
  -88.8877   31.5945   -2.2211 C   0  0  0  0  0  0  0  0  0  0  0  0
  -89.5194   30.4511   -1.6708 O   0  0  0  0  0  0  0  0  0  0  0  0
  -86.5104   26.6735    1.3685 C   0  0  0  0  0  0  0  0  0  0  0  0
  -85.6004   27.3683    2.2249 N   0  0  0  0  0  0  0  0  0  0  0  0
  -84.6565   26.9110    2.2814 H   0  0  0  0  0  0  0  0  0  0  0  0
  -85.4976   28.7762    1.9535 C   0  0  0  0  0  0  0  0  0  0  0  0
  -85.1425   29.6012    3.1960 C   0  0  0  0  0  0  0  0  0  0  0  0
  -84.2349   29.5293    2.0255 C   0  0  0  0  0  0  0  0  0  0  0  0
  -84.1043   30.7103    1.1399 C   0  0  0  0  0  0  0  0  0  0  0  0
  -82.9010   31.1940    0.6811 C   0  0  0  0  0  0  0  0  0  0  0  0
  -82.8067   32.2863   -0.1358 C   0  0  0  0  0  0  0  0  0  0  0  0
  -83.9355   32.9472   -0.5312 C   0  0  0  0  0  0  0  0  0  0  0  0
  -85.1569   32.4870   -0.0884 C   0  0  0  0  0  0  0  0  0  0  0  0
  -85.2353   31.3804    0.7379 C   0  0  0  0  0  0  0  0  0  0  0  0
 11 12  1  0  0  0
 12  1  1  0  0  0
  1  2  2  0  0  0
  2  3  1  0  0  0
  3  4  2  0  0  0
  4 13  1  0  0  0
 13 14  1  0  0  0
 14 16  1  0  0  0
 16 17  1  0  0  0
 17 18  1  0  0  0
 18 19  1  0  0  0
 19 20  2  0  0  0
 20 21  1  0  0  0
 21 22  2  0  0  0
 22 23  1  0  0  0
 23 24  2  0  0  0
  4  5  1  0  0  0
  5  6  2  0  0  0
  6  7  1  0  0  0
  7  8  2  0  0  0
  8  9  1  0  0  0
  9 10  2  0  0  0
 10  1  1  0  0  0
 18 16  1  0  0  0
 24 19  1  0  0  0
 10  5  1  0  0  0
 14 15  1  0  0  0
M  END
> <minimizedAffinity>
-8.65285

> <CNNscore>
0.4143511057

> <CNNaffinity>
6.0767593384

> <CNN_VS>
2.5179119110

> <CNNaffinity_variance>
0.0809652880

$$$$
[H]c1c([H])c([H])c(C2([H])C([H])([H])[C@]2([H])N([H])C([H])([H])c2c([H])c([H])c(OC([H])([H])[H])c3c([H])c([H])c([H])c([H])c23)c([H])c1[H]


 24 27  0  0  0  0  0  0  0  0999 V2000
  -84.9266   31.3722    0.7966 C   0  0  0  0  0  0  0  0  0  0  0  0
  -84.5904   32.6141    0.3186 C   0  0  0  0  0  0  0  0  0  0  0  0
  -85.3865   33.2957   -0.5912 C   0  0  0  0  0  0  0  0  0  0  0  0
  -86.5585   32.7396   -1.0523 C   0  0  0  0  0  0  0  0  0  0  0  0
  -86.9080   31.4764   -0.5711 C   0  0  0  0  0  0  0  0  0  0  0  0
  -88.0844   30.9279   -1.0390 C   0  0  0  0  0  0  0  0  0  0  0  0
  -88.4170   29.6741   -0.5518 C   0  0  0  0  0  0  0  0  0  0  0  0
  -87.6312   28.9986    0.3481 C   0  0  0  0  0  0  0  0  0  0  0  0
  -86.4589   29.5588    0.8067 C   0  0  0  0  0  0  0  0  0  0  0  0
  -86.1036   30.8228    0.3287 C   0  0  0  0  0  0  0  0  0  0  0  0
  -82.8034   30.3062    1.3525 C   0  0  0  0  0  0  0  0  0  0  0  0
  -84.1188   30.6913    1.7139 O   0  0  0  0  0  0  0  0  0  0  0  0
  -87.4409   33.4443   -2.0206 C   0  0  0  0  0  0  0  0  0  0  0  0
  -86.6331   34.2133   -2.9152 N   0  0  0  0  0  0  0  0  0  0  0  0
  -86.1167   33.6238   -3.6146 H   0  0  0  0  0  0  0  0  0  0  0  0
  -87.3279   35.3037   -3.5433 C   0  0  0  0  0  0  0  0  0  0  0  0
  -87.6988   35.0159   -5.0029 C   0  0  0  0  0  0  0  0  0  0  0  0
  -88.7361   35.2361   -3.9665 C   0  0  0  0  0  0  0  0  0  0  0  0
  -89.4999   36.5061   -3.9681 C   0  0  0  0  0  0  0  0  0  0  0  0
  -90.8707   36.5751   -4.0606 C   0  0  0  0  0  0  0  0  0  0  0  0
  -91.5528   37.7601   -4.0601 C   0  0  0  0  0  0  0  0  0  0  0  0
  -90.8743   38.9424   -3.9649 C   0  0  0  0  0  0  0  0  0  0  0  0
  -89.4997   38.9069   -3.8708 C   0  0  0  0  0  0  0  0  0  0  0  0
  -88.8245   37.6996   -3.8727 C   0  0  0  0  0  0  0  0  0  0  0  0
 11 12  1  0  0  0
 12  1  1  0  0  0
  1  2  2  0  0  0
  2  3  1  0  0  0
  3  4  2  0  0  0
  4 13  1  0  0  0
 13 14  1  0  0  0
 14 16  1  0  0  0
 16 17  1  0  0  0
 17 18  1  0  0  0
 18 19  1  0  0  0
 19 20  2  0  0  0
 20 21  1  0  0  0
 21 22  2  0  0  0
 22 23  1  0  0  0
 23 24  2  0  0  0
  4  5  1  0  0  0
  5  6  2  0  0  0
  6  7  1  0  0  0
  7  8  2  0  0  0
  8  9  1  0  0  0
  9 10  2  0  0  0
 10  1  1  0  0  0
 18 16  1  0  0  0
 24 19  1  0  0  0
 10  5  1  0  0  0
 14 15  1  0  0  0
M  END
> <minimizedAffinity>
-7.31330

> <CNNscore>
0.3971438706

> <CNNaffinity>
5.4897031784

> <CNN_VS>
2.1802020073

> <CNNaffinity_variance>
0.2397391349

$$$$
[H]c1c([H])c([H])c(C2([H])C([H])([H])[C@]2([H])N([H])C([H])([H])c2c([H])c([H])c(OC([H])([H])[H])c3c([H])c([H])c([H])c([H])c23)c([H])c1[H]


 24 27  0  0  0  0  0  0  0  0999 V2000
  -83.8014   29.2003    1.7343 C   0  0  0  0  0  0  0  0  0  0  0  0
  -84.8931   28.3800    1.8728 C   0  0  0  0  0  0  0  0  0  0  0  0
  -86.1318   28.7021    1.3361 C   0  0  0  0  0  0  0  0  0  0  0  0
  -86.3096   29.8742    0.6360 C   0  0  0  0  0  0  0  0  0  0  0  0
  -85.2040   30.7145    0.4904 C   0  0  0  0  0  0  0  0  0  0  0  0
  -85.3924   31.8864   -0.2129 C   0  0  0  0  0  0  0  0  0  0  0  0
  -84.2857   32.7090   -0.3485 C   0  0  0  0  0  0  0  0  0  0  0  0
  -83.0599   32.3922    0.1813 C   0  0  0  0  0  0  0  0  0  0  0  0
  -82.8866   31.2182    0.8815 C   0  0  0  0  0  0  0  0  0  0  0  0
  -83.9893   30.3731    1.0307 C   0  0  0  0  0  0  0  0  0  0  0  0
  -82.2877   27.5350    2.6771 C   0  0  0  0  0  0  0  0  0  0  0  0
  -82.5557   28.8685    2.2782 O   0  0  0  0  0  0  0  0  0  0  0  0
  -87.6199   30.2481    0.0396 C   0  0  0  0  0  0  0  0  0  0  0  0
  -88.2502   29.0737   -0.4777 N   0  0  0  0  0  0  0  0  0  0  0  0
  -87.5679   28.3794   -0.8724 H   0  0  0  0  0  0  0  0  0  0  0  0
  -89.1768   28.4560    0.4312 C   0  0  0  0  0  0  0  0  0  0  0  0
  -90.0191   27.3570   -0.2272 C   0  0  0  0  0  0  0  0  0  0  0  0
  -89.0727   27.0560    0.8739 C   0  0  0  0  0  0  0  0  0  0  0  0
  -89.6078   26.7336    2.2177 C   0  0  0  0  0  0  0  0  0  0  0  0
  -90.2589   25.5604    2.5213 C   0  0  0  0  0  0  0  0  0  0  0  0
  -90.7440   25.2861    3.7699 C   0  0  0  0  0  0  0  0  0  0  0  0
  -90.5919   26.1939    4.7799 C   0  0  0  0  0  0  0  0  0  0  0  0
  -89.9438   27.3794    4.5075 C   0  0  0  0  0  0  0  0  0  0  0  0
  -89.4588   27.6417    3.2389 C   0  0  0  0  0  0  0  0  0  0  0  0
 11 12  1  0  0  0
 12  1  1  0  0  0
  1  2  2  0  0  0
  2  3  1  0  0  0
  3  4  2  0  0  0
  4 13  1  0  0  0
 13 14  1  0  0  0
 14 16  1  0  0  0
 16 17  1  0  0  0
 17 18  1  0  0  0
 18 19  1  0  0  0
 19 20  2  0  0  0
 20 21  1  0  0  0
 21 22  2  0  0  0
 22 23  1  0  0  0
 23 24  2  0  0  0
  4  5  1  0  0  0
  5  6  2  0  0  0
  6  7  1  0  0  0
  7  8  2  0  0  0
  8  9  1  0  0  0
  9 10  2  0  0  0
 10  1  1  0  0  0
 18 16  1  0  0  0
 24 19  1  0  0  0
 10  5  1  0  0  0
 14 15  1  0  0  0
M  END
> <minimizedAffinity>
-8.23476

> <CNNscore>
0.3930610716

> <CNNaffinity>
5.8376936913

> <CNN_VS>
2.2945702076

> <CNNaffinity_variance>
0.1212443709

$$$$
[H]c1c([H])c([H])c(C2([H])C([H])([H])[C@]2([H])N([H])C([H])([H])c2c([H])c([H])c(OC([H])([H])[H])c3c([H])c([H])c([H])c([H])c23)c([H])c1[H]


 24 27  0  0  0  0  0  0  0  0999 V2000
  -84.4873   31.2046    0.9750 C   0  0  0  0  0  0  0  0  0  0  0  0
  -85.4389   31.8298    0.2085 C   0  0  0  0  0  0  0  0  0  0  0  0
  -86.6022   31.1881   -0.1930 C   0  0  0  0  0  0  0  0  0  0  0  0
  -86.8439   29.8821    0.1696 C   0  0  0  0  0  0  0  0  0  0  0  0
  -85.8808   29.2388    0.9494 C   0  0  0  0  0  0  0  0  0  0  0  0
  -86.1324   27.9304    1.3078 C   0  0  0  0  0  0  0  0  0  0  0  0
  -85.1672   27.3063    2.0815 C   0  0  0  0  0  0  0  0  0  0  0  0
  -84.0163   27.9391    2.4798 C   0  0  0  0  0  0  0  0  0  0  0  0
  -83.7784   29.2462    2.1143 C   0  0  0  0  0  0  0  0  0  0  0  0
  -84.7384   29.8954    1.3339 C   0  0  0  0  0  0  0  0  0  0  0  0
  -82.3236   32.1861    0.4195 C   0  0  0  0  0  0  0  0  0  0  0  0
  -83.3170   31.8583    1.3760 O   0  0  0  0  0  0  0  0  0  0  0  0
  -88.0830   29.1654   -0.2349 C   0  0  0  0  0  0  0  0  0  0  0  0
  -89.1523   30.1077   -0.3479 N   0  0  0  0  0  0  0  0  0  0  0  0
  -89.2424   30.7318    0.4922 H   0  0  0  0  0  0  0  0  0  0  0  0
  -89.1463   30.8582   -1.5739 C   0  0  0  0  0  0  0  0  0  0  0  0
  -90.5548   31.1983   -2.0747 C   0  0  0  0  0  0  0  0  0  0  0  0
  -89.5958   32.2562   -1.6751 C   0  0  0  0  0  0  0  0  0  0  0  0
  -88.9646   33.0917   -2.7238 C   0  0  0  0  0  0  0  0  0  0  0  0
  -89.3675   33.1033   -4.0391 C   0  0  0  0  0  0  0  0  0  0  0  0
  -88.7685   33.8837   -4.9886 C   0  0  0  0  0  0  0  0  0  0  0  0
  -87.7240   34.6969   -4.6496 C   0  0  0  0  0  0  0  0  0  0  0  0
  -87.2966   34.7080   -3.3393 C   0  0  0  0  0  0  0  0  0  0  0  0
  -87.9134   33.9124   -2.3905 C   0  0  0  0  0  0  0  0  0  0  0  0
 11 12  1  0  0  0
 12  1  1  0  0  0
  1  2  2  0  0  0
  2  3  1  0  0  0
  3  4  2  0  0  0
  4 13  1  0  0  0
 13 14  1  0  0  0
 14 16  1  0  0  0
 16 17  1  0  0  0
 17 18  1  0  0  0
 18 19  1  0  0  0
 19 20  2  0  0  0
 20 21  1  0  0  0
 21 22  2  0  0  0
 22 23  1  0  0  0
 23 24  2  0  0  0
  4  5  1  0  0  0
  5  6  2  0  0  0
  6  7  1  0  0  0
  7  8  2  0  0  0
  8  9  1  0  0  0
  9 10  2  0  0  0
 10  1  1  0  0  0
 18 16  1  0  0  0
 24 19  1  0  0  0
 10  5  1  0  0  0
 14 15  1  0  0  0
M  END
> <minimizedAffinity>
-7.97762

> <CNNscore>
0.3373495340

> <CNNaffinity>
5.5594129562

> <CNN_VS>
1.8754653931

> <CNNaffinity_variance>
0.2187960446

$$$$
[H]c1c([H])c([H])c(C2([H])C([H])([H])[C@]2([H])N([H])C([H])([H])c2c([H])c([H])c(OC([H])([H])[H])c3c([H])c([H])c([H])c([H])c23)c([H])c1[H]


 24 27  0  0  0  0  0  0  0  0999 V2000
  -84.9717   31.5114    0.3983 C   0  0  0  0  0  0  0  0  0  0  0  0
  -85.4364   32.6866   -0.1373 C   0  0  0  0  0  0  0  0  0  0  0  0
  -86.7243   32.8111   -0.6394 C   0  0  0  0  0  0  0  0  0  0  0  0
  -87.5923   31.7427   -0.6169 C   0  0  0  0  0  0  0  0  0  0  0  0
  -87.1276   30.5434   -0.0736 C   0  0  0  0  0  0  0  0  0  0  0  0
  -88.0051   29.4788   -0.0553 C   0  0  0  0  0  0  0  0  0  0  0  0
  -87.5287   28.2961    0.4870 C   0  0  0  0  0  0  0  0  0  0  0  0
  -86.2556   28.1710    0.9841 C   0  0  0  0  0  0  0  0  0  0  0  0
  -85.3901   29.2428    0.9593 C   0  0  0  0  0  0  0  0  0  0  0  0
  -85.8493   30.4457    0.4168 C   0  0  0  0  0  0  0  0  0  0  0  0
  -82.5762   31.9141    0.1695 C   0  0  0  0  0  0  0  0  0  0  0  0
  -83.6720   31.3936    0.9027 O   0  0  0  0  0  0  0  0  0  0  0  0
  -88.9820   31.8417   -1.1379 C   0  0  0  0  0  0  0  0  0  0  0  0
  -88.9734   31.5849   -2.5443 N   0  0  0  0  0  0  0  0  0  0  0  0
  -89.9189   31.3274   -2.9223 H   0  0  0  0  0  0  0  0  0  0  0  0
  -88.3475   32.6164   -3.3256 C   0  0  0  0  0  0  0  0  0  0  0  0
  -88.5219   32.4134   -4.8352 C   0  0  0  0  0  0  0  0  0  0  0  0
  -89.0954   33.5897   -4.1380 C   0  0  0  0  0  0  0  0  0  0  0  0
  -88.4734   34.9202   -4.3360 C   0  0  0  0  0  0  0  0  0  0  0  0
  -87.7872   35.2831   -5.4717 C   0  0  0  0  0  0  0  0  0  0  0  0
  -87.2218   36.5179   -5.6306 C   0  0  0  0  0  0  0  0  0  0  0  0
  -87.3248   37.4526   -4.6392 C   0  0  0  0  0  0  0  0  0  0  0  0
  -88.0065   37.1195   -3.4885 C   0  0  0  0  0  0  0  0  0  0  0  0
  -88.5728   35.8658   -3.3433 C   0  0  0  0  0  0  0  0  0  0  0  0
 11 12  1  0  0  0
 12  1  1  0  0  0
  1  2  2  0  0  0
  2  3  1  0  0  0
  3  4  2  0  0  0
  4 13  1  0  0  0
 13 14  1  0  0  0
 14 16  1  0  0  0
 16 17  1  0  0  0
 17 18  1  0  0  0
 18 19  1  0  0  0
 19 20  2  0  0  0
 20 21  1  0  0  0
 21 22  2  0  0  0
 22 23  1  0  0  0
 23 24  2  0  0  0
  4  5  1  0  0  0
  5  6  2  0  0  0
  6  7  1  0  0  0
  7  8  2  0  0  0
  8  9  1  0  0  0
  9 10  2  0  0  0
 10  1  1  0  0  0
 18 16  1  0  0  0
 24 19  1  0  0  0
 10  5  1  0  0  0
 14 15  1  0  0  0
M  END
> <minimizedAffinity>
-7.39027

> <CNNscore>
0.3063369691

> <CNNaffinity>
5.3407144547

> <CNN_VS>
1.6360583305

> <CNNaffinity_variance>
0.2172605544

$$$$
[H]c1nc([H])c([C@@]2([H])N(C([H])([H])[H])C([H])([H])C([H])([H])C2([H])[H])c([H])c1[H]


 12 13  0  0  0  0  0  0  0  0999 V2000
  -85.5856   28.9337    0.1758 C   0  0  0  0  0  0  0  0  0  0  0  0
  -85.0872   29.0930    1.4706 N   0  0  0  0  0  0  0  0  0  0  0  0
  -84.7451   27.9536    2.2229 C   0  0  0  0  0  0  0  0  0  0  0  0
  -83.2814   28.1725    2.5477 C   0  0  0  0  0  0  0  0  0  0  0  0
  -82.8729   29.4609    1.8235 C   0  0  0  0  0  0  0  0  0  0  0  0
  -84.2284   30.1683    1.7584 C   0  0  0  0  0  0  0  0  0  0  0  0
  -84.2209   31.3021    0.8525 C   0  0  0  0  0  0  0  0  0  0  0  0
  -85.3882   31.9819    0.5793 C   0  0  0  0  0  0  0  0  0  0  0  0
  -85.3888   33.0770   -0.2975 C   0  0  0  0  0  0  0  0  0  0  0  0
  -84.2001   33.4579   -0.8789 C   0  0  0  0  0  0  0  0  0  0  0  0
  -83.0939   32.7882   -0.5996 N   0  0  0  0  0  0  0  0  0  0  0  0
  -83.0700   31.7353    0.2381 C   0  0  0  0  0  0  0  0  0  0  0  0
  1  2  1  0  0  0
  2  3  1  0  0  0
  3  4  1  0  0  0
  4  5  1  0  0  0
  5  6  1  0  0  0
  6  7  1  0  0  0
  7  8  2  0  0  0
  8  9  1  0  0  0
  9 10  2  0  0  0
 10 11  1  0  0  0
 11 12  2  0  0  0
  6  2  1  0  0  0
 12  7  1  0  0  0
M  END
> <minimizedAffinity>
-6.48452

> <CNNscore>
0.7263953090

> <CNNaffinity>
4.9824366570

> <CNN_VS>
3.6192185879

> <CNNaffinity_variance>
0.1040922552

$$$$
[H]c1nc([H])c([C@@]2([H])N(C([H])([H])[H])C([H])([H])C([H])([H])C2([H])[H])c([H])c1[H]


 12 13  0  0  0  0  0  0  0  0999 V2000
  -86.4056   29.0072   -0.8891 C   0  0  0  0  0  0  0  0  0  0  0  0
  -86.5756   28.9129    0.4938 N   0  0  0  0  0  0  0  0  0  0  0  0
  -87.0327   27.7042    1.0515 C   0  0  0  0  0  0  0  0  0  0  0  0
  -85.9298   27.3229    2.0179 C   0  0  0  0  0  0  0  0  0  0  0  0
  -84.8280   28.3749    1.8427 C   0  0  0  0  0  0  0  0  0  0  0  0
  -85.6672   29.5569    1.3522 C   0  0  0  0  0  0  0  0  0  0  0  0
  -84.8536   30.6296    0.8105 C   0  0  0  0  0  0  0  0  0  0  0  0
  -83.4814   30.5083    0.7679 C   0  0  0  0  0  0  0  0  0  0  0  0
  -82.6886   31.5424    0.2483 C   0  0  0  0  0  0  0  0  0  0  0  0
  -83.3093   32.6798   -0.2177 C   0  0  0  0  0  0  0  0  0  0  0  0
  -84.6280   32.7707   -0.1652 N   0  0  0  0  0  0  0  0  0  0  0  0
  -85.4080   31.7917    0.3288 C   0  0  0  0  0  0  0  0  0  0  0  0
  1  2  1  0  0  0
  2  3  1  0  0  0
  3  4  1  0  0  0
  4  5  1  0  0  0
  5  6  1  0  0  0
  6  7  1  0  0  0
  7  8  2  0  0  0
  8  9  1  0  0  0
  9 10  2  0  0  0
 10 11  1  0  0  0
 11 12  2  0  0  0
  6  2  1  0  0  0
 12  7  1  0  0  0
M  END
> <minimizedAffinity>
-5.57817

> <CNNscore>
0.5366427898

> <CNNaffinity>
4.5910263062

> <CNN_VS>
2.4637410641

> <CNNaffinity_variance>
0.2740705311

$$$$
[H]c1nc([H])c([C@@]2([H])N(C([H])([H])[H])C([H])([H])C([H])([H])C2([H])[H])c([H])c1[H]


 12 13  0  0  0  0  0  0  0  0999 V2000
  -85.6047   28.7852    0.3295 C   0  0  0  0  0  0  0  0  0  0  0  0
  -85.0690   28.9176    1.6123 N   0  0  0  0  0  0  0  0  0  0  0  0
  -84.7231   27.7621    2.3377 C   0  0  0  0  0  0  0  0  0  0  0  0
  -83.2480   27.9552    2.6254 C   0  0  0  0  0  0  0  0  0  0  0  0
  -82.8407   29.2487    1.9097 C   0  0  0  0  0  0  0  0  0  0  0  0
  -84.1871   29.9761    1.8924 C   0  0  0  0  0  0  0  0  0  0  0  0
  -84.1878   31.1234    1.0038 C   0  0  0  0  0  0  0  0  0  0  0  0
  -83.0238   31.5239    0.3840 C   0  0  0  0  0  0  0  0  0  0  0  0
  -83.0166   32.6337   -0.4741 C   0  0  0  0  0  0  0  0  0  0  0  0
  -84.1954   33.3139   -0.6837 C   0  0  0  0  0  0  0  0  0  0  0  0
  -85.2986   32.9085   -0.0764 N   0  0  0  0  0  0  0  0  0  0  0  0
  -85.3287   31.8472    0.7504 C   0  0  0  0  0  0  0  0  0  0  0  0
  1  2  1  0  0  0
  2  3  1  0  0  0
  3  4  1  0  0  0
  4  5  1  0  0  0
  5  6  1  0  0  0
  6  7  1  0  0  0
  7  8  2  0  0  0
  8  9  1  0  0  0
  9 10  2  0  0  0
 10 11  1  0  0  0
 11 12  2  0  0  0
  6  2  1  0  0  0
 12  7  1  0  0  0
M  END
> <minimizedAffinity>
-6.42092

> <CNNscore>
0.4543318748

> <CNNaffinity>
4.7577967644

> <CNN_VS>
2.1616187096

> <CNNaffinity_variance>
0.1369819194

$$$$
[H]c1nc([H])c([C@@]2([H])N(C([H])([H])[H])C([H])([H])C([H])([H])C2([H])[H])c([H])c1[H]


 12 13  0  0  0  0  0  0  0  0999 V2000
  -84.7282   31.6654    0.5140 C   0  0  0  0  0  0  0  0  0  0  0  0
  -85.9889   31.0652    0.5418 N   0  0  0  0  0  0  0  0  0  0  0  0
  -86.9745   31.4891   -0.3692 C   0  0  0  0  0  0  0  0  0  0  0  0
  -87.3277   30.2219   -1.1209 C   0  0  0  0  0  0  0  0  0  0  0  0
  -86.3803   29.1370   -0.5948 C   0  0  0  0  0  0  0  0  0  0  0  0
  -86.0986   29.6885    0.8047 C   0  0  0  0  0  0  0  0  0  0  0  0
  -84.9830   29.0221    1.4507 C   0  0  0  0  0  0  0  0  0  0  0  0
  -83.7397   29.6161    1.4790 C   0  0  0  0  0  0  0  0  0  0  0  0
  -82.6562   28.9763    2.0992 C   0  0  0  0  0  0  0  0  0  0  0  0
  -82.8606   27.7438    2.6784 C   0  0  0  0  0  0  0  0  0  0  0  0
  -84.0640   27.1959    2.6372 N   0  0  0  0  0  0  0  0  0  0  0  0
  -85.1173   27.7912    2.0480 C   0  0  0  0  0  0  0  0  0  0  0  0
  1  2  1  0  0  0
  2  3  1  0  0  0
  3  4  1  0  0  0
  4  5  1  0  0  0
  5  6  1  0  0  0
  6  7  1  0  0  0
  7  8  2  0  0  0
  8  9  1  0  0  0
  9 10  2  0  0  0
 10 11  1  0  0  0
 11 12  2  0  0  0
  6  2  1  0  0  0
 12  7  1  0  0  0
M  END
> <minimizedAffinity>
-6.41714

> <CNNscore>
0.4515475929

> <CNNaffinity>
4.6049108505

> <CNN_VS>
2.0793364048

> <CNNaffinity_variance>
0.2744942009

$$$$
[H]c1nc([H])c([C@@]2([H])N(C([H])([H])[H])C([H])([H])C([H])([H])C2([H])[H])c([H])c1[H]


 12 13  0  0  0  0  0  0  0  0999 V2000
  -82.9661   31.3867   -0.1963 C   0  0  0  0  0  0  0  0  0  0  0  0
  -83.9628   32.2924    0.1734 N   0  0  0  0  0  0  0  0  0  0  0  0
  -84.1382   33.4694   -0.5783 C   0  0  0  0  0  0  0  0  0  0  0  0
  -85.5786   33.3810   -1.0400 C   0  0  0  0  0  0  0  0  0  0  0  0
  -86.0997   32.0242   -0.5512 C   0  0  0  0  0  0  0  0  0  0  0  0
  -85.1912   31.8141    0.6623 C   0  0  0  0  0  0  0  0  0  0  0  0
  -85.2460   30.4554    1.1692 C   0  0  0  0  0  0  0  0  0  0  0  0
  -84.6863   30.1453    2.3898 C   0  0  0  0  0  0  0  0  0  0  0  0
  -84.7331   28.8335    2.8847 C   0  0  0  0  0  0  0  0  0  0  0  0
  -85.3492   27.8633    2.1262 C   0  0  0  0  0  0  0  0  0  0  0  0
  -85.8784   28.1877    0.9579 N   0  0  0  0  0  0  0  0  0  0  0  0
  -85.8452   29.4390    0.4638 C   0  0  0  0  0  0  0  0  0  0  0  0
  1  2  1  0  0  0
  2  3  1  0  0  0
  3  4  1  0  0  0
  4  5  1  0  0  0
  5  6  1  0  0  0
  6  7  1  0  0  0
  7  8  2  0  0  0
  8  9  1  0  0  0
  9 10  2  0  0  0
 10 11  1  0  0  0
 11 12  2  0  0  0
  6  2  1  0  0  0
 12  7  1  0  0  0
M  END
> <minimizedAffinity>
-5.63209

> <CNNscore>
0.4177763760

> <CNNaffinity>
4.4477396011

> <CNN_VS>
1.8581604958

> <CNNaffinity_variance>
0.3740590215

$$$$
[H]c1nc([H])c([C@@]2([H])N(C([H])([H])[H])C([H])([H])C([H])([H])C2([H])[H])c([H])c1[H]


 12 13  0  0  0  0  0  0  0  0999 V2000
  -85.6585   29.2529   -0.1977 C   0  0  0  0  0  0  0  0  0  0  0  0
  -85.1162   29.9095    0.9091 N   0  0  0  0  0  0  0  0  0  0  0  0
  -84.0864   29.2903    1.6420 C   0  0  0  0  0  0  0  0  0  0  0  0
  -82.9490   30.2882    1.5632 C   0  0  0  0  0  0  0  0  0  0  0  0
  -83.4391   31.4211    0.6535 C   0  0  0  0  0  0  0  0  0  0  0  0
  -84.9486   31.3050    0.8771 C   0  0  0  0  0  0  0  0  0  0  0  0
  -85.7144   32.0663   -0.0924 C   0  0  0  0  0  0  0  0  0  0  0  0
  -87.0860   31.9429   -0.1469 C   0  0  0  0  0  0  0  0  0  0  0  0
  -87.8323   32.6736   -1.0835 C   0  0  0  0  0  0  0  0  0  0  0  0
  -87.1666   33.5156   -1.9461 C   0  0  0  0  0  0  0  0  0  0  0  0
  -85.8495   33.6154   -1.8726 N   0  0  0  0  0  0  0  0  0  0  0  0
  -85.1137   32.9244   -0.9826 C   0  0  0  0  0  0  0  0  0  0  0  0
  1  2  1  0  0  0
  2  3  1  0  0  0
  3  4  1  0  0  0
  4  5  1  0  0  0
  5  6  1  0  0  0
  6  7  1  0  0  0
  7  8  2  0  0  0
  8  9  1  0  0  0
  9 10  2  0  0  0
 10 11  1  0  0  0
 11 12  2  0  0  0
  6  2  1  0  0  0
 12  7  1  0  0  0
M  END
> <minimizedAffinity>
-5.59131

> <CNNscore>
0.4146539569

> <CNNaffinity>
4.4080414772

> <CNN_VS>
1.8278118372

> <CNNaffinity_variance>
0.2586898506

$$$$
[H]c1nc([H])c([C@@]2([H])N(C([H])([H])[H])C([H])([H])C([H])([H])C2([H])[H])c([H])c1[H]


 12 13  0  0  0  0  0  0  0  0999 V2000
  -85.0942   29.7174    2.9007 C   0  0  0  0  0  0  0  0  0  0  0  0
  -85.0971   28.7801    1.8653 N   0  0  0  0  0  0  0  0  0  0  0  0
  -85.8623   27.6065    1.9998 C   0  0  0  0  0  0  0  0  0  0  0  0
  -86.7995   27.6589    0.8104 C   0  0  0  0  0  0  0  0  0  0  0  0
  -86.5246   28.9953    0.1106 C   0  0  0  0  0  0  0  0  0  0  0  0
  -85.0697   29.2185    0.5298 C   0  0  0  0  0  0  0  0  0  0  0  0
  -84.6144   30.5698    0.2600 C   0  0  0  0  0  0  0  0  0  0  0  0
  -83.2679   30.8635    0.2620 C   0  0  0  0  0  0  0  0  0  0  0  0
  -82.8209   32.1681    0.0049 C   0  0  0  0  0  0  0  0  0  0  0  0
  -83.7545   33.1479   -0.2491 C   0  0  0  0  0  0  0  0  0  0  0  0
  -85.0409   32.8392   -0.2450 N   0  0  0  0  0  0  0  0  0  0  0  0
  -85.4921   31.5951   -0.0010 C   0  0  0  0  0  0  0  0  0  0  0  0
  1  2  1  0  0  0
  2  3  1  0  0  0
  3  4  1  0  0  0
  4  5  1  0  0  0
  5  6  1  0  0  0
  6  7  1  0  0  0
  7  8  2  0  0  0
  8  9  1  0  0  0
  9 10  2  0  0  0
 10 11  1  0  0  0
 11 12  2  0  0  0
  6  2  1  0  0  0
 12  7  1  0  0  0
M  END
> <minimizedAffinity>
-5.51074

> <CNNscore>
0.3916738033

> <CNNaffinity>
4.5449790955

> <CNN_VS>
1.7801492214

> <CNNaffinity_variance>
0.2511177659

$$$$
[H]c1nc([H])c([C@@]2([H])N(C([H])([H])[H])C([H])([H])C([H])([H])C2([H])[H])c([H])c1[H]


 12 13  0  0  0  0  0  0  0  0999 V2000
  -86.5906   28.8309   -0.7653 C   0  0  0  0  0  0  0  0  0  0  0  0
  -86.9998   28.5130    0.5315 N   0  0  0  0  0  0  0  0  0  0  0  0
  -87.7261   27.3281    0.7544 C   0  0  0  0  0  0  0  0  0  0  0  0
  -86.8716   26.5737    1.7527 C   0  0  0  0  0  0  0  0  0  0  0  0
  -85.6055   27.4156    1.9509 C   0  0  0  0  0  0  0  0  0  0  0  0
  -86.1567   28.8040    1.6184 C   0  0  0  0  0  0  0  0  0  0  0  0
  -85.1072   29.7881    1.4286 C   0  0  0  0  0  0  0  0  0  0  0  0
  -83.7848   29.4341    1.5872 C   0  0  0  0  0  0  0  0  0  0  0  0
  -82.7653   30.3809    1.4081 C   0  0  0  0  0  0  0  0  0  0  0  0
  -83.1131   31.6699    1.0710 C   0  0  0  0  0  0  0  0  0  0  0  0
  -84.3900   31.9833    0.9248 N   0  0  0  0  0  0  0  0  0  0  0  0
  -85.3841   31.0918    1.0916 C   0  0  0  0  0  0  0  0  0  0  0  0
  1  2  1  0  0  0
  2  3  1  0  0  0
  3  4  1  0  0  0
  4  5  1  0  0  0
  5  6  1  0  0  0
  6  7  1  0  0  0
  7  8  2  0  0  0
  8  9  1  0  0  0
  9 10  2  0  0  0
 10 11  1  0  0  0
 11 12  2  0  0  0
  6  2  1  0  0  0
 12  7  1  0  0  0
M  END
> <minimizedAffinity>
-5.59617

> <CNNscore>
0.3771579862

> <CNNaffinity>
4.4678869247

> <CNN_VS>
1.6850992441

> <CNNaffinity_variance>
0.2700011730

$$$$
[H]c1nc([H])c([C@@]2([H])N(C([H])([H])[H])C([H])([H])C([H])([H])C2([H])[H])c([H])c1[H]


 12 13  0  0  0  0  0  0  0  0999 V2000
  -87.5531   29.5377    0.3425 C   0  0  0  0  0  0  0  0  0  0  0  0
  -86.6988   30.3108   -0.4467 N   0  0  0  0  0  0  0  0  0  0  0  0
  -87.1989   31.4656   -1.0770 C   0  0  0  0  0  0  0  0  0  0  0  0
  -86.3151   32.5719   -0.5380 C   0  0  0  0  0  0  0  0  0  0  0  0
  -85.3878   31.9129    0.4902 C   0  0  0  0  0  0  0  0  0  0  0  0
  -85.3589   30.4843   -0.0579 C   0  0  0  0  0  0  0  0  0  0  0  0
  -84.7897   29.5387    0.8844 C   0  0  0  0  0  0  0  0  0  0  0  0
  -83.5192   29.7320    1.3822 C   0  0  0  0  0  0  0  0  0  0  0  0
  -82.9617   28.8204    2.2912 C   0  0  0  0  0  0  0  0  0  0  0  0
  -83.7096   27.7298    2.6752 C   0  0  0  0  0  0  0  0  0  0  0  0
  -84.9265   27.5679    2.1824 N   0  0  0  0  0  0  0  0  0  0  0  0
  -85.4811   28.4292    1.3097 C   0  0  0  0  0  0  0  0  0  0  0  0
  1  2  1  0  0  0
  2  3  1  0  0  0
  3  4  1  0  0  0
  4  5  1  0  0  0
  5  6  1  0  0  0
  6  7  1  0  0  0
  7  8  2  0  0  0
  8  9  1  0  0  0
  9 10  2  0  0  0
 10 11  1  0  0  0
 11 12  2  0  0  0
  6  2  1  0  0  0
 12  7  1  0  0  0
M  END
> <minimizedAffinity>
-5.73507

> <CNNscore>
0.2923486233

> <CNNaffinity>
4.3673772812

> <CNN_VS>
1.2767966986

> <CNNaffinity_variance>
0.2480657101

$$$$
[H]c1nc([H])c(N([H])C(=O)c2nc(-c3c(F)c([H])c([H])c([H])c3F)c([H])c([H])c2F)c([C@@]2([H])C([H])([H])[C@@]([H])(N([H])[H])C([H])([H])[C@@]([H])(C([H])([H])[H])C2([H])[H])c1[H]


 35 38  0  0  0  0  0  0  0  0999 V2000
  -89.1121   31.3650   -0.5314 N   0  0  0  0  0  0  0  0  0  0  0  0
  -89.4442   30.1989   -1.2283 C   0  0  0  0  0  0  0  0  0  0  0  0
  -89.0299   30.0596   -2.4508 O   0  0  0  0  0  0  0  0  0  0  0  0
  -89.4438   31.4578    0.4557 H   0  0  0  0  0  0  0  0  0  0  0  0
  -90.2126   29.0569   -0.7606 C   0  0  0  0  0  0  0  0  0  0  0  0
  -89.9857   28.5735    0.4743 N   0  0  0  0  0  0  0  0  0  0  0  0
  -90.5966   27.5412    1.0592 C   0  0  0  0  0  0  0  0  0  0  0  0
  -91.5759   26.8918    0.2930 C   0  0  0  0  0  0  0  0  0  0  0  0
  -91.8630   27.3281   -0.9838 C   0  0  0  0  0  0  0  0  0  0  0  0
  -91.1640   28.4189   -1.4918 C   0  0  0  0  0  0  0  0  0  0  0  0
  -91.4817   28.8218   -2.7800 F   0  0  0  0  0  0  0  0  0  0  0  0
  -90.3533   27.0934    2.4135 C   0  0  0  0  0  0  0  0  0  0  0  0
  -89.6908   25.9047    2.6831 C   0  0  0  0  0  0  0  0  0  0  0  0
  -89.2798   25.0952    1.6617 F   0  0  0  0  0  0  0  0  0  0  0  0
  -89.4199   25.4683    3.9586 C   0  0  0  0  0  0  0  0  0  0  0  0
  -89.8025   26.2103    5.0376 C   0  0  0  0  0  0  0  0  0  0  0  0
  -90.4739   27.4115    4.8028 C   0  0  0  0  0  0  0  0  0  0  0  0
  -90.7313   27.8219    3.5127 C   0  0  0  0  0  0  0  0  0  0  0  0
  -91.3919   29.0050    3.2743 F   0  0  0  0  0  0  0  0  0  0  0  0
  -86.9825   32.3459   -0.8653 C   0  0  0  0  0  0  0  0  0  0  0  0
  -86.2250   33.2944   -1.5616 C   0  0  0  0  0  0  0  0  0  0  0  0
  -86.7959   34.1935   -2.4466 C   0  0  0  0  0  0  0  0  0  0  0  0
  -88.1037   34.1856   -2.6684 N   0  0  0  0  0  0  0  0  0  0  0  0
  -88.8592   33.2768   -2.0105 C   0  0  0  0  0  0  0  0  0  0  0  0
  -88.3472   32.3767   -1.1426 C   0  0  0  0  0  0  0  0  0  0  0  0
  -82.6602   31.7945    0.9665 C   0  0  0  0  0  0  0  0  0  0  0  0
  -84.1236   31.3405    1.2977 C   0  0  0  0  0  0  0  0  0  0  0  0
  -84.1557   29.8231    1.0911 C   0  0  0  0  0  0  0  0  0  0  0  0
  -85.5736   29.3978    1.0827 C   0  0  0  0  0  0  0  0  0  0  0  0
  -85.7272   27.9884    1.0487 N   0  0  0  0  0  0  0  0  0  0  0  0
  -86.3333   30.0327   -0.1135 C   0  0  0  0  0  0  0  0  0  0  0  0
  -86.4628   31.5203    0.1988 C   0  0  0  0  0  0  0  0  0  0  0  0
  -84.9518   31.9839    0.2697 C   0  0  0  0  0  0  0  0  0  0  0  0
  -86.7323   27.6701    1.0722 H   0  0  0  0  0  0  0  0  0  0  0  0
  -85.1197   27.4272    1.6580 H   0  0  0  0  0  0  0  0  0  0  0  0
 26 27  1  0  0  0
 27 28  1  0  0  0
 28 29  1  0  0  0
 29 30  1  0  0  0
 29 31  1  0  0  0
 31 32  1  0  0  0
 32 20  1  0  0  0
 20 21  2  0  0  0
 21 22  1  0  0  0
 22 23  2  0  0  0
 23 24  1  0  0  0
 24 25  2  0  0  0
 25  1  1  0  0  0
  1  2  1  0  0  0
  2  3  2  0  0  0
  2  5  1  0  0  0
  5  6  2  0  0  0
  6  7  1  0  0  0
  7 12  1  0  0  0
 12 13  2  0  0  0
 13 14  1  0  0  0
 13 15  1  0  0  0
 15 16  2  0  0  0
 16 17  1  0  0  0
 17 18  2  0  0  0
 18 19  1  0  0  0
  7  8  2  0  0  0
  8  9  1  0  0  0
  9 10  2  0  0  0
 10 11  1  0  0  0
 32 33  1  0  0  0
 33 27  1  0  0  0
 25 20  1  0  0  0
 10  5  1  0  0  0
 18 12  1  0  0  0
 30 34  1  0  0  0
 30 35  1  0  0  0
  1  4  1  0  0  0
M  END
> <minimizedAffinity>
-10.37287

> <CNNscore>
0.2960191965

> <CNNaffinity>
7.0930800438

> <CNN_VS>
2.0996878147

> <CNNaffinity_variance>
0.2493921816

$$$$
[H]c1nc([H])c(N([H])C(=O)c2nc(-c3c(F)c([H])c([H])c([H])c3F)c([H])c([H])c2F)c([C@@]2([H])C([H])([H])[C@@]([H])(N([H])[H])C([H])([H])[C@@]([H])(C([H])([H])[H])C2([H])[H])c1[H]


 35 38  0  0  0  0  0  0  0  0999 V2000
  -89.1190   31.3812   -0.5543 N   0  0  0  0  0  0  0  0  0  0  0  0
  -89.4491   30.2103   -1.2439 C   0  0  0  0  0  0  0  0  0  0  0  0
  -89.0413   30.0676   -2.4682 O   0  0  0  0  0  0  0  0  0  0  0  0
  -89.4454   31.4768    0.4343 H   0  0  0  0  0  0  0  0  0  0  0  0
  -90.2090   29.0666   -0.7666 C   0  0  0  0  0  0  0  0  0  0  0  0
  -89.9512   28.5709    0.4573 N   0  0  0  0  0  0  0  0  0  0  0  0
  -90.5500   27.5352    1.0486 C   0  0  0  0  0  0  0  0  0  0  0  0
  -91.5517   26.8963    0.3027 C   0  0  0  0  0  0  0  0  0  0  0  0
  -91.8709   27.3455   -0.9619 C   0  0  0  0  0  0  0  0  0  0  0  0
  -91.1817   28.4386   -1.4781 C   0  0  0  0  0  0  0  0  0  0  0  0
  -91.5320   28.8546   -2.7537 F   0  0  0  0  0  0  0  0  0  0  0  0
  -90.2725   27.0739    2.3918 C   0  0  0  0  0  0  0  0  0  0  0  0
  -90.7104   27.7695    3.5093 C   0  0  0  0  0  0  0  0  0  0  0  0
  -91.3911   28.9461    3.3685 F   0  0  0  0  0  0  0  0  0  0  0  0
  -90.4869   27.3404    4.7964 C   0  0  0  0  0  0  0  0  0  0  0  0
  -89.8077   26.1804    5.0289 C   0  0  0  0  0  0  0  0  0  0  0  0
  -89.3503   25.4559    3.9267 C   0  0  0  0  0  0  0  0  0  0  0  0
  -89.5896   25.9122    2.6487 C   0  0  0  0  0  0  0  0  0  0  0  0
  -89.1421   25.2027    1.5581 F   0  0  0  0  0  0  0  0  0  0  0  0
  -86.9962   32.3708   -0.9058 C   0  0  0  0  0  0  0  0  0  0  0  0
  -86.2477   33.3200   -1.6108 C   0  0  0  0  0  0  0  0  0  0  0  0
  -86.8285   34.2127   -2.4958 C   0  0  0  0  0  0  0  0  0  0  0  0
  -88.1376   34.1977   -2.7092 N   0  0  0  0  0  0  0  0  0  0  0  0
  -88.8846   33.2881   -2.0428 C   0  0  0  0  0  0  0  0  0  0  0  0
  -88.3627   32.3940   -1.1745 C   0  0  0  0  0  0  0  0  0  0  0  0
  -82.6529   31.8194    0.8756 C   0  0  0  0  0  0  0  0  0  0  0  0
  -84.1135   31.3731    1.2290 C   0  0  0  0  0  0  0  0  0  0  0  0
  -84.1532   29.8542    1.0351 C   0  0  0  0  0  0  0  0  0  0  0  0
  -85.5725   29.4337    1.0482 C   0  0  0  0  0  0  0  0  0  0  0  0
  -85.7312   28.0247    1.0275 N   0  0  0  0  0  0  0  0  0  0  0  0
  -86.3452   30.0616   -0.1435 C   0  0  0  0  0  0  0  0  0  0  0  0
  -86.4658   31.5520    0.1583 C   0  0  0  0  0  0  0  0  0  0  0  0
  -84.9525   32.0111    0.2063 C   0  0  0  0  0  0  0  0  0  0  0  0
  -86.7369   27.7100    1.0663 H   0  0  0  0  0  0  0  0  0  0  0  0
  -85.1179   27.4663    1.6336 H   0  0  0  0  0  0  0  0  0  0  0  0
 26 27  1  0  0  0
 27 28  1  0  0  0
 28 29  1  0  0  0
 29 30  1  0  0  0
 29 31  1  0  0  0
 31 32  1  0  0  0
 32 20  1  0  0  0
 20 21  2  0  0  0
 21 22  1  0  0  0
 22 23  2  0  0  0
 23 24  1  0  0  0
 24 25  2  0  0  0
 25  1  1  0  0  0
  1  2  1  0  0  0
  2  3  2  0  0  0
  2  5  1  0  0  0
  5  6  2  0  0  0
  6  7  1  0  0  0
  7 12  1  0  0  0
 12 13  2  0  0  0
 13 14  1  0  0  0
 13 15  1  0  0  0
 15 16  2  0  0  0
 16 17  1  0  0  0
 17 18  2  0  0  0
 18 19  1  0  0  0
  7  8  2  0  0  0
  8  9  1  0  0  0
  9 10  2  0  0  0
 10 11  1  0  0  0
 32 33  1  0  0  0
 33 27  1  0  0  0
 25 20  1  0  0  0
 10  5  1  0  0  0
 18 12  1  0  0  0
 30 34  1  0  0  0
 30 35  1  0  0  0
  1  4  1  0  0  0
M  END
> <minimizedAffinity>
-10.37610

> <CNNscore>
0.2922336161

> <CNNaffinity>
7.0991125107

> <CNN_VS>
2.0745992661

> <CNNaffinity_variance>
0.2358550727

$$$$
[H]c1nc([H])c(N([H])C(=O)c2nc(-c3c(F)c([H])c([H])c([H])c3F)c([H])c([H])c2F)c([C@@]2([H])C([H])([H])[C@@]([H])(N([H])[H])C([H])([H])[C@@]([H])(C([H])([H])[H])C2([H])[H])c1[H]


 35 38  0  0  0  0  0  0  0  0999 V2000
  -87.2742   31.7996   -0.3856 N   0  0  0  0  0  0  0  0  0  0  0  0
  -87.8889   31.3982   -1.5758 C   0  0  0  0  0  0  0  0  0  0  0  0
  -87.1745   31.3275   -2.6576 O   0  0  0  0  0  0  0  0  0  0  0  0
  -87.8601   31.8413    0.4793 H   0  0  0  0  0  0  0  0  0  0  0  0
  -89.2754   31.0178   -1.7909 C   0  0  0  0  0  0  0  0  0  0  0  0
  -89.9418   31.5296   -2.8417 N   0  0  0  0  0  0  0  0  0  0  0  0
  -91.2083   31.2885   -3.1863 C   0  0  0  0  0  0  0  0  0  0  0  0
  -91.9156   30.4095   -2.3527 C   0  0  0  0  0  0  0  0  0  0  0  0
  -91.3006   29.8463   -1.2538 C   0  0  0  0  0  0  0  0  0  0  0  0
  -89.9722   30.1677   -0.9919 C   0  0  0  0  0  0  0  0  0  0  0  0
  -89.3944   29.5819    0.1243 F   0  0  0  0  0  0  0  0  0  0  0  0
  -91.8639   31.8236   -4.3602 C   0  0  0  0  0  0  0  0  0  0  0  0
  -91.6584   33.1292   -4.7815 C   0  0  0  0  0  0  0  0  0  0  0  0
  -90.8506   33.9677   -4.0661 F   0  0  0  0  0  0  0  0  0  0  0  0
  -92.2445   33.6558   -5.9085 C   0  0  0  0  0  0  0  0  0  0  0  0
  -93.0726   32.8912   -6.6770 C   0  0  0  0  0  0  0  0  0  0  0  0
  -93.3036   31.5727   -6.2807 C   0  0  0  0  0  0  0  0  0  0  0  0
  -92.7020   31.0738   -5.1458 C   0  0  0  0  0  0  0  0  0  0  0  0
  -92.9248   29.7751   -4.7500 F   0  0  0  0  0  0  0  0  0  0  0  0
  -85.0732   31.1781    0.2294 C   0  0  0  0  0  0  0  0  0  0  0  0
  -83.7078   31.4755    0.1570 C   0  0  0  0  0  0  0  0  0  0  0  0
  -83.2317   32.6291   -0.4431 C   0  0  0  0  0  0  0  0  0  0  0  0
  -84.0693   33.5069   -0.9795 N   0  0  0  0  0  0  0  0  0  0  0  0
  -85.3947   33.2425   -0.9259 C   0  0  0  0  0  0  0  0  0  0  0  0
  -85.9056   32.1288   -0.3566 C   0  0  0  0  0  0  0  0  0  0  0  0
  -83.1049   27.7594    2.8332 C   0  0  0  0  0  0  0  0  0  0  0  0
  -84.5428   28.3171    2.5523 C   0  0  0  0  0  0  0  0  0  0  0  0
  -85.2853   27.2155    1.7899 C   0  0  0  0  0  0  0  0  0  0  0  0
  -86.5225   27.8068    1.2320 C   0  0  0  0  0  0  0  0  0  0  0  0
  -87.3716   26.8440    0.6295 N   0  0  0  0  0  0  0  0  0  0  0  0
  -86.1867   28.9205    0.2032 C   0  0  0  0  0  0  0  0  0  0  0  0
  -85.6231   30.0906    1.0034 C   0  0  0  0  0  0  0  0  0  0  0  0
  -84.3271   29.4609    1.6567 C   0  0  0  0  0  0  0  0  0  0  0  0
  -88.2708   27.2469    0.2537 H   0  0  0  0  0  0  0  0  0  0  0  0
  -87.5125   25.9551    1.1248 H   0  0  0  0  0  0  0  0  0  0  0  0
 26 27  1  0  0  0
 27 28  1  0  0  0
 28 29  1  0  0  0
 29 30  1  0  0  0
 29 31  1  0  0  0
 31 32  1  0  0  0
 32 20  1  0  0  0
 20 21  2  0  0  0
 21 22  1  0  0  0
 22 23  2  0  0  0
 23 24  1  0  0  0
 24 25  2  0  0  0
 25  1  1  0  0  0
  1  2  1  0  0  0
  2  3  2  0  0  0
  2  5  1  0  0  0
  5  6  2  0  0  0
  6  7  1  0  0  0
  7 12  1  0  0  0
 12 13  2  0  0  0
 13 14  1  0  0  0
 13 15  1  0  0  0
 15 16  2  0  0  0
 16 17  1  0  0  0
 17 18  2  0  0  0
 18 19  1  0  0  0
  7  8  2  0  0  0
  8  9  1  0  0  0
  9 10  2  0  0  0
 10 11  1  0  0  0
 32 33  1  0  0  0
 33 27  1  0  0  0
 25 20  1  0  0  0
 10  5  1  0  0  0
 18 12  1  0  0  0
 30 34  1  0  0  0
 30 35  1  0  0  0
  1  4  1  0  0  0
M  END
> <minimizedAffinity>
-9.35340

> <CNNscore>
0.2192591727

> <CNNaffinity>
6.9562163353

> <CNN_VS>
1.5252141953

> <CNNaffinity_variance>
0.1293782890

$$$$
[H]c1nc([H])c(N([H])C(=O)c2nc(-c3c(F)c([H])c([H])c([H])c3F)c([H])c([H])c2F)c([C@@]2([H])C([H])([H])[C@@]([H])(N([H])[H])C([H])([H])[C@@]([H])(C([H])([H])[H])C2([H])[H])c1[H]


 35 38  0  0  0  0  0  0  0  0999 V2000
  -86.8050   27.8446    0.4361 N   0  0  0  0  0  0  0  0  0  0  0  0
  -88.0310   27.7308    1.0992 C   0  0  0  0  0  0  0  0  0  0  0  0
  -88.0467   27.7582    2.3971 O   0  0  0  0  0  0  0  0  0  0  0  0
  -86.8097   27.8317   -0.6092 H   0  0  0  0  0  0  0  0  0  0  0  0
  -89.3583   27.5912    0.5229 C   0  0  0  0  0  0  0  0  0  0  0  0
  -89.8545   26.3595    0.3066 N   0  0  0  0  0  0  0  0  0  0  0  0
  -91.0461   26.0511   -0.2091 C   0  0  0  0  0  0  0  0  0  0  0  0
  -91.8603   27.1358   -0.5674 C   0  0  0  0  0  0  0  0  0  0  0  0
  -91.4194   28.4291   -0.3782 C   0  0  0  0  0  0  0  0  0  0  0  0
  -90.1574   28.6327    0.1717 C   0  0  0  0  0  0  0  0  0  0  0  0
  -89.7528   29.9481    0.3413 F   0  0  0  0  0  0  0  0  0  0  0  0
  -91.5558   24.7065   -0.3717 C   0  0  0  0  0  0  0  0  0  0  0  0
  -91.7153   24.1311   -1.6238 C   0  0  0  0  0  0  0  0  0  0  0  0
  -91.4282   24.8437   -2.7540 F   0  0  0  0  0  0  0  0  0  0  0  0
  -92.1694   22.8462   -1.8077 C   0  0  0  0  0  0  0  0  0  0  0  0
  -92.4880   22.0668   -0.7343 C   0  0  0  0  0  0  0  0  0  0  0  0
  -92.3416   22.6152    0.5411 C   0  0  0  0  0  0  0  0  0  0  0  0
  -91.8844   23.9063    0.6929 C   0  0  0  0  0  0  0  0  0  0  0  0
  -91.7373   24.4526    1.9471 F   0  0  0  0  0  0  0  0  0  0  0  0
  -84.9795   29.2209    1.0546 C   0  0  0  0  0  0  0  0  0  0  0  0
  -83.8448   29.3710    1.8596 C   0  0  0  0  0  0  0  0  0  0  0  0
  -83.3825   28.3593    2.6843 C   0  0  0  0  0  0  0  0  0  0  0  0
  -84.0111   27.1926    2.7400 N   0  0  0  0  0  0  0  0  0  0  0  0
  -85.1127   27.0216    1.9741 C   0  0  0  0  0  0  0  0  0  0  0  0
  -85.6045   27.9804    1.1590 C   0  0  0  0  0  0  0  0  0  0  0  0
  -83.3033   33.4409   -0.2581 C   0  0  0  0  0  0  0  0  0  0  0  0
  -84.3679   32.4094   -0.7680 C   0  0  0  0  0  0  0  0  0  0  0  0
  -85.7323   33.0825   -0.5898 C   0  0  0  0  0  0  0  0  0  0  0  0
  -86.7740   32.0440   -0.7568 C   0  0  0  0  0  0  0  0  0  0  0  0
  -88.0884   32.5763   -0.7628 N   0  0  0  0  0  0  0  0  0  0  0  0
  -86.6564   30.9612    0.3501 C   0  0  0  0  0  0  0  0  0  0  0  0
  -85.3869   30.1714    0.0474 C   0  0  0  0  0  0  0  0  0  0  0  0
  -84.2633   31.2792    0.1639 C   0  0  0  0  0  0  0  0  0  0  0  0
  -88.8395   31.8510   -0.9107 H   0  0  0  0  0  0  0  0  0  0  0  0
  -88.2537   33.4336   -1.3041 H   0  0  0  0  0  0  0  0  0  0  0  0
 26 27  1  0  0  0
 27 28  1  0  0  0
 28 29  1  0  0  0
 29 30  1  0  0  0
 29 31  1  0  0  0
 31 32  1  0  0  0
 32 20  1  0  0  0
 20 21  2  0  0  0
 21 22  1  0  0  0
 22 23  2  0  0  0
 23 24  1  0  0  0
 24 25  2  0  0  0
 25  1  1  0  0  0
  1  2  1  0  0  0
  2  3  2  0  0  0
  2  5  1  0  0  0
  5  6  2  0  0  0
  6  7  1  0  0  0
  7 12  1  0  0  0
 12 13  2  0  0  0
 13 14  1  0  0  0
 13 15  1  0  0  0
 15 16  2  0  0  0
 16 17  1  0  0  0
 17 18  2  0  0  0
 18 19  1  0  0  0
  7  8  2  0  0  0
  8  9  1  0  0  0
  9 10  2  0  0  0
 10 11  1  0  0  0
 32 33  1  0  0  0
 33 27  1  0  0  0
 25 20  1  0  0  0
 10  5  1  0  0  0
 18 12  1  0  0  0
 30 34  1  0  0  0
 30 35  1  0  0  0
  1  4  1  0  0  0
M  END
> <minimizedAffinity>
-9.05167

> <CNNscore>
0.2097871006

> <CNNaffinity>
7.0561800003

> <CNN_VS>
1.4802955389

> <CNNaffinity_variance>
0.2279936075

$$$$
[H]c1nc([H])c(N([H])C(=O)c2nc(-c3c(F)c([H])c([H])c([H])c3F)c([H])c([H])c2F)c([C@@]2([H])C([H])([H])[C@@]([H])(N([H])[H])C([H])([H])[C@@]([H])(C([H])([H])[H])C2([H])[H])c1[H]


 35 38  0  0  0  0  0  0  0  0999 V2000
  -88.0388   31.2034   -0.2082 N   0  0  0  0  0  0  0  0  0  0  0  0
  -88.4616   30.1420   -1.0147 C   0  0  0  0  0  0  0  0  0  0  0  0
  -87.7868   29.8628   -2.0881 O   0  0  0  0  0  0  0  0  0  0  0  0
  -88.5861   31.4092    0.6585 H   0  0  0  0  0  0  0  0  0  0  0  0
  -89.5938   29.2526   -0.8140 C   0  0  0  0  0  0  0  0  0  0  0  0
  -89.6443   28.4932    0.2955 N   0  0  0  0  0  0  0  0  0  0  0  0
  -90.6032   27.6302    0.6370 C   0  0  0  0  0  0  0  0  0  0  0  0
  -91.6670   27.5030   -0.2686 C   0  0  0  0  0  0  0  0  0  0  0  0
  -91.6846   28.2469   -1.4301 C   0  0  0  0  0  0  0  0  0  0  0  0
  -90.6307   29.1199   -1.6824 C   0  0  0  0  0  0  0  0  0  0  0  0
  -90.6869   29.8453   -2.8628 F   0  0  0  0  0  0  0  0  0  0  0  0
  -90.6374   26.8752    1.8711 C   0  0  0  0  0  0  0  0  0  0  0  0
  -90.4021   25.5084    1.8992 C   0  0  0  0  0  0  0  0  0  0  0  0
  -90.1674   24.8231    0.7404 F   0  0  0  0  0  0  0  0  0  0  0  0
  -90.3993   24.7704    3.0595 C   0  0  0  0  0  0  0  0  0  0  0  0
  -90.6334   25.3728    4.2610 C   0  0  0  0  0  0  0  0  0  0  0  0
  -90.8765   26.7474    4.2692 C   0  0  0  0  0  0  0  0  0  0  0  0
  -90.8731   27.4597    3.0895 C   0  0  0  0  0  0  0  0  0  0  0  0
  -91.1113   28.8148    3.0907 F   0  0  0  0  0  0  0  0  0  0  0  0
  -85.7109   31.5613    0.0402 C   0  0  0  0  0  0  0  0  0  0  0  0
  -84.5800   32.2623   -0.3931 C   0  0  0  0  0  0  0  0  0  0  0  0
  -84.6527   33.2789   -1.3305 C   0  0  0  0  0  0  0  0  0  0  0  0
  -85.8180   33.6287   -1.8590 N   0  0  0  0  0  0  0  0  0  0  0  0
  -86.9270   32.9652   -1.4599 C   0  0  0  0  0  0  0  0  0  0  0  0
  -86.9051   31.9636   -0.5533 C   0  0  0  0  0  0  0  0  0  0  0  0
  -82.3209   28.9565    2.0564 C   0  0  0  0  0  0  0  0  0  0  0  0
  -83.8177   29.3268    2.3392 C   0  0  0  0  0  0  0  0  0  0  0  0
  -84.6165   28.0313    2.1671 C   0  0  0  0  0  0  0  0  0  0  0  0
  -86.0520   28.3891    2.1119 C   0  0  0  0  0  0  0  0  0  0  0  0
  -86.9038   27.2554    2.1049 N   0  0  0  0  0  0  0  0  0  0  0  0
  -86.3530   29.2735    0.8716 C   0  0  0  0  0  0  0  0  0  0  0  0
  -85.7106   30.6302    1.1434 C   0  0  0  0  0  0  0  0  0  0  0  0
  -84.1770   30.2603    1.2639 C   0  0  0  0  0  0  0  0  0  0  0  0
  -87.9305   27.4958    2.0956 H   0  0  0  0  0  0  0  0  0  0  0  0
  -86.6827   26.4881    2.7511 H   0  0  0  0  0  0  0  0  0  0  0  0
 26 27  1  0  0  0
 27 28  1  0  0  0
 28 29  1  0  0  0
 29 30  1  0  0  0
 29 31  1  0  0  0
 31 32  1  0  0  0
 32 20  1  0  0  0
 20 21  2  0  0  0
 21 22  1  0  0  0
 22 23  2  0  0  0
 23 24  1  0  0  0
 24 25  2  0  0  0
 25  1  1  0  0  0
  1  2  1  0  0  0
  2  3  2  0  0  0
  2  5  1  0  0  0
  5  6  2  0  0  0
  6  7  1  0  0  0
  7 12  1  0  0  0
 12 13  2  0  0  0
 13 14  1  0  0  0
 13 15  1  0  0  0
 15 16  2  0  0  0
 16 17  1  0  0  0
 17 18  2  0  0  0
 18 19  1  0  0  0
  7  8  2  0  0  0
  8  9  1  0  0  0
  9 10  2  0  0  0
 10 11  1  0  0  0
 32 33  1  0  0  0
 33 27  1  0  0  0
 25 20  1  0  0  0
 10  5  1  0  0  0
 18 12  1  0  0  0
 30 34  1  0  0  0
 30 35  1  0  0  0
  1  4  1  0  0  0
M  END
> <minimizedAffinity>
-10.16365

> <CNNscore>
0.1785623878

> <CNNaffinity>
6.9765486717

> <CNN_VS>
1.2457492352

> <CNNaffinity_variance>
0.2468568832

$$$$
[H]c1nc([H])c(N([H])C(=O)c2nc(-c3c(F)c([H])c([H])c([H])c3F)c([H])c([H])c2F)c([C@@]2([H])C([H])([H])[C@@]([H])(N([H])[H])C([H])([H])[C@@]([H])(C([H])([H])[H])C2([H])[H])c1[H]


 35 38  0  0  0  0  0  0  0  0999 V2000
  -87.1852   31.6243   -0.2556 N   0  0  0  0  0  0  0  0  0  0  0  0
  -87.7642   31.1241   -1.4262 C   0  0  0  0  0  0  0  0  0  0  0  0
  -87.0422   31.0557   -2.5030 O   0  0  0  0  0  0  0  0  0  0  0  0
  -87.7761   31.6632    0.6060 H   0  0  0  0  0  0  0  0  0  0  0  0
  -89.1183   30.6338   -1.6241 C   0  0  0  0  0  0  0  0  0  0  0  0
  -89.3944   29.3431   -1.3637 N   0  0  0  0  0  0  0  0  0  0  0  0
  -90.5741   28.7315   -1.4876 C   0  0  0  0  0  0  0  0  0  0  0  0
  -91.6342   29.5278   -1.9460 C   0  0  0  0  0  0  0  0  0  0  0  0
  -91.4283   30.8605   -2.2367 C   0  0  0  0  0  0  0  0  0  0  0  0
  -90.1542   31.3938   -2.0669 C   0  0  0  0  0  0  0  0  0  0  0  0
  -89.9910   32.7361   -2.3740 F   0  0  0  0  0  0  0  0  0  0  0  0
  -90.8317   27.3501   -1.1420 C   0  0  0  0  0  0  0  0  0  0  0  0
  -91.2461   26.9791    0.1289 C   0  0  0  0  0  0  0  0  0  0  0  0
  -91.3856   27.9177    1.1122 F   0  0  0  0  0  0  0  0  0  0  0  0
  -91.5262   25.6788    0.4778 C   0  0  0  0  0  0  0  0  0  0  0  0
  -91.4048   24.6767   -0.4399 C   0  0  0  0  0  0  0  0  0  0  0  0
  -90.9875   25.0143   -1.7285 C   0  0  0  0  0  0  0  0  0  0  0  0
  -90.7137   26.3267   -2.0477 C   0  0  0  0  0  0  0  0  0  0  0  0
  -90.3027   26.6663   -3.3160 F   0  0  0  0  0  0  0  0  0  0  0  0
  -84.9503   31.2040    0.4059 C   0  0  0  0  0  0  0  0  0  0  0  0
  -83.6095   31.5953    0.3211 C   0  0  0  0  0  0  0  0  0  0  0  0
  -83.2133   32.7416   -0.3471 C   0  0  0  0  0  0  0  0  0  0  0  0
  -84.1076   33.5214   -0.9401 N   0  0  0  0  0  0  0  0  0  0  0  0
  -85.4107   33.1648   -0.8760 C   0  0  0  0  0  0  0  0  0  0  0  0
  -85.8444   32.0537   -0.2412 C   0  0  0  0  0  0  0  0  0  0  0  0
  -82.7603   27.7229    2.7355 C   0  0  0  0  0  0  0  0  0  0  0  0
  -84.2064   28.3205    2.6407 C   0  0  0  0  0  0  0  0  0  0  0  0
  -85.0700   27.2423    1.9788 C   0  0  0  0  0  0  0  0  0  0  0  0
  -86.3516   27.8691    1.5836 C   0  0  0  0  0  0  0  0  0  0  0  0
  -87.2967   26.9322    1.0939 N   0  0  0  0  0  0  0  0  0  0  0  0
  -86.1194   28.9774    0.5210 C   0  0  0  0  0  0  0  0  0  0  0  0
  -85.4266   30.1287    1.2432 C   0  0  0  0  0  0  0  0  0  0  0  0
  -84.0755   29.4615    1.7255 C   0  0  0  0  0  0  0  0  0  0  0  0
  -88.2251   27.3607    0.8361 H   0  0  0  0  0  0  0  0  0  0  0  0
  -87.3975   26.0454    1.6026 H   0  0  0  0  0  0  0  0  0  0  0  0
 26 27  1  0  0  0
 27 28  1  0  0  0
 28 29  1  0  0  0
 29 30  1  0  0  0
 29 31  1  0  0  0
 31 32  1  0  0  0
 32 20  1  0  0  0
 20 21  2  0  0  0
 21 22  1  0  0  0
 22 23  2  0  0  0
 23 24  1  0  0  0
 24 25  2  0  0  0
 25  1  1  0  0  0
  1  2  1  0  0  0
  2  3  2  0  0  0
  2  5  1  0  0  0
  5  6  2  0  0  0
  6  7  1  0  0  0
  7 12  1  0  0  0
 12 13  2  0  0  0
 13 14  1  0  0  0
 13 15  1  0  0  0
 15 16  2  0  0  0
 16 17  1  0  0  0
 17 18  2  0  0  0
 18 19  1  0  0  0
  7  8  2  0  0  0
  8  9  1  0  0  0
  9 10  2  0  0  0
 10 11  1  0  0  0
 32 33  1  0  0  0
 33 27  1  0  0  0
 25 20  1  0  0  0
 10  5  1  0  0  0
 18 12  1  0  0  0
 30 34  1  0  0  0
 30 35  1  0  0  0
  1  4  1  0  0  0
M  END
> <minimizedAffinity>
-9.82231

> <CNNscore>
0.1712461859

> <CNNaffinity>
7.0057725906

> <CNN_VS>
1.1997117996

> <CNNaffinity_variance>
0.0833867788

$$$$
[H]c1nc([H])c(N([H])C(=O)c2nc(-c3c(F)c([H])c([H])c([H])c3F)c([H])c([H])c2F)c([C@@]2([H])C([H])([H])[C@@]([H])(N([H])[H])C([H])([H])[C@@]([H])(C([H])([H])[H])C2([H])[H])c1[H]


 35 38  0  0  0  0  0  0  0  0999 V2000
  -87.8811   31.8065   -3.0303 N   0  0  0  0  0  0  0  0  0  0  0  0
  -87.6927   31.8991   -1.6477 C   0  0  0  0  0  0  0  0  0  0  0  0
  -88.7308   31.8548   -0.8692 O   0  0  0  0  0  0  0  0  0  0  0  0
  -87.0348   31.8328   -3.6435 H   0  0  0  0  0  0  0  0  0  0  0  0
  -86.4445   32.0324   -0.9147 C   0  0  0  0  0  0  0  0  0  0  0  0
  -85.9877   30.9884   -0.1996 N   0  0  0  0  0  0  0  0  0  0  0  0
  -84.8682   30.9375    0.5252 C   0  0  0  0  0  0  0  0  0  0  0  0
  -84.0933   32.1067    0.5423 C   0  0  0  0  0  0  0  0  0  0  0  0
  -84.4978   33.2200   -0.1647 C   0  0  0  0  0  0  0  0  0  0  0  0
  -85.6840   33.1583   -0.8897 C   0  0  0  0  0  0  0  0  0  0  0  0
  -86.0546   34.3008   -1.5827 F   0  0  0  0  0  0  0  0  0  0  0  0
  -84.3927   29.7693    1.2345 C   0  0  0  0  0  0  0  0  0  0  0  0
  -83.0711   29.6460    1.6379 C   0  0  0  0  0  0  0  0  0  0  0  0
  -82.1624   30.6213    1.3368 F   0  0  0  0  0  0  0  0  0  0  0  0
  -82.5976   28.5615    2.3382 C   0  0  0  0  0  0  0  0  0  0  0  0
  -83.4344   27.5375    2.6732 C   0  0  0  0  0  0  0  0  0  0  0  0
  -84.7711   27.6277    2.2809 C   0  0  0  0  0  0  0  0  0  0  0  0
  -85.2157   28.7274    1.5793 C   0  0  0  0  0  0  0  0  0  0  0  0
  -86.5319   28.8228    1.1902 F   0  0  0  0  0  0  0  0  0  0  0  0
  -89.7467   32.8509   -4.0492 C   0  0  0  0  0  0  0  0  0  0  0  0
  -90.9853   32.6827   -4.6782 C   0  0  0  0  0  0  0  0  0  0  0  0
  -91.5889   31.4430   -4.8061 C   0  0  0  0  0  0  0  0  0  0  0  0
  -91.0025   30.3534   -4.3281 N   0  0  0  0  0  0  0  0  0  0  0  0
  -89.8029   30.4871   -3.7179 C   0  0  0  0  0  0  0  0  0  0  0  0
  -89.1729   31.6738   -3.5744 C   0  0  0  0  0  0  0  0  0  0  0  0
  -91.2935   37.2891   -4.5503 C   0  0  0  0  0  0  0  0  0  0  0  0
  -90.0916   36.5534   -3.8635 C   0  0  0  0  0  0  0  0  0  0  0  0
  -88.8373   36.9755   -4.6347 C   0  0  0  0  0  0  0  0  0  0  0  0
  -87.7343   36.0739   -4.2323 C   0  0  0  0  0  0  0  0  0  0  0  0
  -86.4803   36.4619   -4.7689 N   0  0  0  0  0  0  0  0  0  0  0  0
  -88.0432   34.6077   -4.6400 C   0  0  0  0  0  0  0  0  0  0  0  0
  -89.1714   34.1355   -3.7283 C   0  0  0  0  0  0  0  0  0  0  0  0
  -90.3463   35.1269   -4.1023 C   0  0  0  0  0  0  0  0  0  0  0  0
  -85.6800   35.8455   -4.4664 H   0  0  0  0  0  0  0  0  0  0  0  0
  -86.2406   37.4606   -4.7482 H   0  0  0  0  0  0  0  0  0  0  0  0
 26 27  1  0  0  0
 27 28  1  0  0  0
 28 29  1  0  0  0
 29 30  1  0  0  0
 29 31  1  0  0  0
 31 32  1  0  0  0
 32 20  1  0  0  0
 20 21  2  0  0  0
 21 22  1  0  0  0
 22 23  2  0  0  0
 23 24  1  0  0  0
 24 25  2  0  0  0
 25  1  1  0  0  0
  1  2  1  0  0  0
  2  3  2  0  0  0
  2  5  1  0  0  0
  5  6  2  0  0  0
  6  7  1  0  0  0
  7 12  1  0  0  0
 12 13  2  0  0  0
 13 14  1  0  0  0
 13 15  1  0  0  0
 15 16  2  0  0  0
 16 17  1  0  0  0
 17 18  2  0  0  0
 18 19  1  0  0  0
  7  8  2  0  0  0
  8  9  1  0  0  0
  9 10  2  0  0  0
 10 11  1  0  0  0
 32 33  1  0  0  0
 33 27  1  0  0  0
 25 20  1  0  0  0
 10  5  1  0  0  0
 18 12  1  0  0  0
 30 34  1  0  0  0
 30 35  1  0  0  0
  1  4  1  0  0  0
M  END
> <minimizedAffinity>
-10.17772

> <CNNscore>
0.1649304628

> <CNNaffinity>
6.5551719666

> <CNN_VS>
1.0811475515

> <CNNaffinity_variance>
0.5787178278

$$$$
[H]c1nc([H])c(N([H])C(=O)c2nc(-c3c(F)c([H])c([H])c([H])c3F)c([H])c([H])c2F)c([C@@]2([H])C([H])([H])[C@@]([H])(N([H])[H])C([H])([H])[C@@]([H])(C([H])([H])[H])C2([H])[H])c1[H]


 35 38  0  0  0  0  0  0  0  0999 V2000
  -89.2607   28.1360   -1.9765 N   0  0  0  0  0  0  0  0  0  0  0  0
  -89.4145   29.1354   -1.0103 C   0  0  0  0  0  0  0  0  0  0  0  0
  -90.1962   28.9135    0.0022 O   0  0  0  0  0  0  0  0  0  0  0  0
  -88.6195   28.3253   -2.7802 H   0  0  0  0  0  0  0  0  0  0  0  0
  -88.7890   30.4467   -0.9621 C   0  0  0  0  0  0  0  0  0  0  0  0
  -87.5252   30.5558   -0.5137 N   0  0  0  0  0  0  0  0  0  0  0  0
  -86.8034   31.6731   -0.4052 C   0  0  0  0  0  0  0  0  0  0  0  0
  -87.4425   32.8585   -0.7979 C   0  0  0  0  0  0  0  0  0  0  0  0
  -88.7397   32.8274   -1.2662 C   0  0  0  0  0  0  0  0  0  0  0  0
  -89.3960   31.6025   -1.3394 C   0  0  0  0  0  0  0  0  0  0  0  0
  -90.6994   31.6175   -1.8125 F   0  0  0  0  0  0  0  0  0  0  0  0
  -85.4255   31.7302    0.0334 C   0  0  0  0  0  0  0  0  0  0  0  0
  -84.9740   31.0004    1.1233 C   0  0  0  0  0  0  0  0  0  0  0  0
  -85.8401   30.2282    1.8452 F   0  0  0  0  0  0  0  0  0  0  0  0
  -83.6652   31.0122    1.5450 C   0  0  0  0  0  0  0  0  0  0  0  0
  -82.7351   31.7628    0.8873 C   0  0  0  0  0  0  0  0  0  0  0  0
  -83.1556   32.5119   -0.2131 C   0  0  0  0  0  0  0  0  0  0  0  0
  -84.4745   32.4797   -0.6112 C   0  0  0  0  0  0  0  0  0  0  0  0
  -84.8954   33.2150   -1.6953 F   0  0  0  0  0  0  0  0  0  0  0  0
  -91.0073   26.7328   -2.7440 C   0  0  0  0  0  0  0  0  0  0  0  0
  -91.6088   25.4707   -2.6846 C   0  0  0  0  0  0  0  0  0  0  0  0
  -91.1810   24.4867   -1.8091 C   0  0  0  0  0  0  0  0  0  0  0  0
  -90.1682   24.7115   -0.9825 N   0  0  0  0  0  0  0  0  0  0  0  0
  -89.5667   25.9223   -1.0212 C   0  0  0  0  0  0  0  0  0  0  0  0
  -89.9447   26.9108   -1.8612 C   0  0  0  0  0  0  0  0  0  0  0  0
  -94.6538   29.6600   -2.0539 C   0  0  0  0  0  0  0  0  0  0  0  0
  -93.4372   29.5387   -3.0351 C   0  0  0  0  0  0  0  0  0  0  0  0
  -94.0310   29.2333   -4.4136 C   0  0  0  0  0  0  0  0  0  0  0  0
  -92.9243   28.8014   -5.2969 C   0  0  0  0  0  0  0  0  0  0  0  0
  -93.3277   28.6343   -6.6461 N   0  0  0  0  0  0  0  0  0  0  0  0
  -92.2859   27.4843   -4.7782 C   0  0  0  0  0  0  0  0  0  0  0  0
  -91.5340   27.8438   -3.5005 C   0  0  0  0  0  0  0  0  0  0  0  0
  -92.6948   28.3642   -2.5597 C   0  0  0  0  0  0  0  0  0  0  0  0
  -92.5427   28.3553   -7.2926 H   0  0  0  0  0  0  0  0  0  0  0  0
  -93.9402   29.3514   -7.0535 H   0  0  0  0  0  0  0  0  0  0  0  0
 26 27  1  0  0  0
 27 28  1  0  0  0
 28 29  1  0  0  0
 29 30  1  0  0  0
 29 31  1  0  0  0
 31 32  1  0  0  0
 32 20  1  0  0  0
 20 21  2  0  0  0
 21 22  1  0  0  0
 22 23  2  0  0  0
 23 24  1  0  0  0
 24 25  2  0  0  0
 25  1  1  0  0  0
  1  2  1  0  0  0
  2  3  2  0  0  0
  2  5  1  0  0  0
  5  6  2  0  0  0
  6  7  1  0  0  0
  7 12  1  0  0  0
 12 13  2  0  0  0
 13 14  1  0  0  0
 13 15  1  0  0  0
 15 16  2  0  0  0
 16 17  1  0  0  0
 17 18  2  0  0  0
 18 19  1  0  0  0
  7  8  2  0  0  0
  8  9  1  0  0  0
  9 10  2  0  0  0
 10 11  1  0  0  0
 32 33  1  0  0  0
 33 27  1  0  0  0
 25 20  1  0  0  0
 10  5  1  0  0  0
 18 12  1  0  0  0
 30 34  1  0  0  0
 30 35  1  0  0  0
  1  4  1  0  0  0
M  END
> <minimizedAffinity>
-9.06845

> <CNNscore>
0.1195823997

> <CNNaffinity>
6.3552269936

> <CNN_VS>
0.7599732876

> <CNNaffinity_variance>
0.1942784339

$$$$
[H]c1nc([H])c(N([H])C(=O)c2nc(-c3c(F)c([H])c([H])c([H])c3F)c([H])c([H])c2F)c([C@@]2([H])C([H])([H])[C@@]([H])(N([H])[H])C([H])([H])[C@@]([H])(C([H])([H])[H])C2([H])[H])c1[H]


 35 38  0  0  0  0  0  0  0  0999 V2000
  -87.2275   31.2287    0.1613 N   0  0  0  0  0  0  0  0  0  0  0  0
  -87.6351   29.9696   -0.2906 C   0  0  0  0  0  0  0  0  0  0  0  0
  -86.8370   29.2896   -1.0561 O   0  0  0  0  0  0  0  0  0  0  0  0
  -87.8765   31.7596    0.7858 H   0  0  0  0  0  0  0  0  0  0  0  0
  -88.8766   29.2684   -0.0072 C   0  0  0  0  0  0  0  0  0  0  0  0
  -88.9339   28.4331    1.0459 N   0  0  0  0  0  0  0  0  0  0  0  0
  -89.9852   27.7163    1.4483 C   0  0  0  0  0  0  0  0  0  0  0  0
  -91.1510   27.8500    0.6796 C   0  0  0  0  0  0  0  0  0  0  0  0
  -91.1691   28.6862   -0.4174 C   0  0  0  0  0  0  0  0  0  0  0  0
  -90.0129   29.3889   -0.7429 C   0  0  0  0  0  0  0  0  0  0  0  0
  -90.0741   30.2151   -1.8548 F   0  0  0  0  0  0  0  0  0  0  0  0
  -90.0115   26.8715    2.6229 C   0  0  0  0  0  0  0  0  0  0  0  0
  -90.3649   27.3644    3.8706 C   0  0  0  0  0  0  0  0  0  0  0  0
  -90.6634   28.6881    4.0321 F   0  0  0  0  0  0  0  0  0  0  0  0
  -90.4268   26.5797    4.9981 C   0  0  0  0  0  0  0  0  0  0  0  0
  -90.1359   25.2486    4.9293 C   0  0  0  0  0  0  0  0  0  0  0  0
  -89.7741   24.7195    3.6891 C   0  0  0  0  0  0  0  0  0  0  0  0
  -89.7205   25.5318    2.5772 C   0  0  0  0  0  0  0  0  0  0  0  0
  -89.3652   25.0166    1.3519 F   0  0  0  0  0  0  0  0  0  0  0  0
  -86.0210   32.8824   -1.0298 C   0  0  0  0  0  0  0  0  0  0  0  0
  -84.7731   33.4535   -1.3035 C   0  0  0  0  0  0  0  0  0  0  0  0
  -83.5931   32.9303   -0.8024 C   0  0  0  0  0  0  0  0  0  0  0  0
  -83.6060   31.8506   -0.0319 N   0  0  0  0  0  0  0  0  0  0  0  0
  -84.7993   31.2801    0.2510 C   0  0  0  0  0  0  0  0  0  0  0  0
  -85.9764   31.7573   -0.2097 C   0  0  0  0  0  0  0  0  0  0  0  0
  -88.2099   31.4186   -4.9550 C   0  0  0  0  0  0  0  0  0  0  0  0
  -88.5183   32.3624   -3.7419 C   0  0  0  0  0  0  0  0  0  0  0  0
  -88.5880   33.7817   -4.3137 C   0  0  0  0  0  0  0  0  0  0  0  0
  -88.5611   34.7291   -3.1765 C   0  0  0  0  0  0  0  0  0  0  0  0
  -88.7724   36.0741   -3.5732 N   0  0  0  0  0  0  0  0  0  0  0  0
  -87.2212   34.6206   -2.3993 C   0  0  0  0  0  0  0  0  0  0  0  0
  -87.2496   33.2774   -1.6767 C   0  0  0  0  0  0  0  0  0  0  0  0
  -87.3372   32.2496   -2.8764 C   0  0  0  0  0  0  0  0  0  0  0  0
  -88.7853   36.7568   -2.7696 H   0  0  0  0  0  0  0  0  0  0  0  0
  -89.5129   36.2582   -4.2611 H   0  0  0  0  0  0  0  0  0  0  0  0
 26 27  1  0  0  0
 27 28  1  0  0  0
 28 29  1  0  0  0
 29 30  1  0  0  0
 29 31  1  0  0  0
 31 32  1  0  0  0
 32 20  1  0  0  0
 20 21  2  0  0  0
 21 22  1  0  0  0
 22 23  2  0  0  0
 23 24  1  0  0  0
 24 25  2  0  0  0
 25  1  1  0  0  0
  1  2  1  0  0  0
  2  3  2  0  0  0
  2  5  1  0  0  0
  5  6  2  0  0  0
  6  7  1  0  0  0
  7 12  1  0  0  0
 12 13  2  0  0  0
 13 14  1  0  0  0
 13 15  1  0  0  0
 15 16  2  0  0  0
 16 17  1  0  0  0
 17 18  2  0  0  0
 18 19  1  0  0  0
  7  8  2  0  0  0
  8  9  1  0  0  0
  9 10  2  0  0  0
 10 11  1  0  0  0
 32 33  1  0  0  0
 33 27  1  0  0  0
 25 20  1  0  0  0
 10  5  1  0  0  0
 18 12  1  0  0  0
 30 34  1  0  0  0
 30 35  1  0  0  0
  1  4  1  0  0  0
M  END
> <minimizedAffinity>
-9.20543

> <CNNscore>
0.1045329720

> <CNNaffinity>
6.6881513596

> <CNN_VS>
0.6991323233

> <CNNaffinity_variance>
0.2131832391

$$$$
[H]OC(=O)C1(C([H])([H])c2c([H])nc(OC([H])([H])C([H])([H])c3nc(-c4c([H])c([H])c([H])c(Cl)c4[H])oc3C([H])([H])[H])c([H])c2[H])OC([H])([H])C([H])([H])C1([H])[H]


 32 35  0  0  0  0  0  0  0  0999 V2000
  -84.2467   32.0537    0.5855 O   0  0  0  0  0  0  0  0  0  0  0  0
  -85.3878   32.2589   -0.1703 C   0  0  0  0  0  0  0  0  0  0  0  0
  -85.5305   33.4630   -0.8794 C   0  0  0  0  0  0  0  0  0  0  0  0
  -86.6592   33.6949   -1.6420 C   0  0  0  0  0  0  0  0  0  0  0  0
  -87.6757   32.7663   -1.7356 C   0  0  0  0  0  0  0  0  0  0  0  0
  -87.4887   31.6110   -1.0260 C   0  0  0  0  0  0  0  0  0  0  0  0
  -86.3912   31.3935   -0.2887 N   0  0  0  0  0  0  0  0  0  0  0  0
  -88.8675   33.0135   -2.5465 C   0  0  0  0  0  0  0  0  0  0  0  0
  -88.8234   32.6054   -3.9734 C   0  0  0  0  0  0  0  0  0  0  0  0
  -90.0291   33.1499   -4.7248 C   0  0  0  0  0  0  0  0  0  0  0  0
  -89.6227   34.6036   -4.8662 C   0  0  0  0  0  0  0  0  0  0  0  0
  -88.1366   34.5130   -4.9099 C   0  0  0  0  0  0  0  0  0  0  0  0
  -87.7245   33.2492   -4.5702 O   0  0  0  0  0  0  0  0  0  0  0  0
  -88.6521   31.1593   -4.2235 C   0  0  0  0  0  0  0  0  0  0  0  0
  -87.7707   30.7274   -5.0462 O   0  0  0  0  0  0  0  0  0  0  0  0
  -89.4001   30.1628   -3.6184 O   0  0  0  0  0  0  0  0  0  0  0  0
  -88.9042   29.3503   -3.2800 H   0  0  0  0  0  0  0  0  0  0  0  0
  -84.1642   31.4166    1.8233 C   0  0  0  0  0  0  0  0  0  0  0  0
  -83.2457   30.2092    1.7025 C   0  0  0  0  0  0  0  0  0  0  0  0
  -82.3623   27.3960    2.8287 C   0  0  0  0  0  0  0  0  0  0  0  0
  -83.7145   27.7761    2.3422 C   0  0  0  0  0  0  0  0  0  0  0  0
  -84.7664   27.0096    2.2954 O   0  0  0  0  0  0  0  0  0  0  0  0
  -85.7985   27.6449    1.8165 C   0  0  0  0  0  0  0  0  0  0  0  0
  -85.3914   28.8933    1.5379 N   0  0  0  0  0  0  0  0  0  0  0  0
  -84.0908   29.0207    1.8517 C   0  0  0  0  0  0  0  0  0  0  0  0
  -87.1400   27.1176    1.6158 C   0  0  0  0  0  0  0  0  0  0  0  0
  -87.4565   26.1692    0.6680 C   0  0  0  0  0  0  0  0  0  0  0  0
  -88.7393   25.6876    0.5046 C   0  0  0  0  0  0  0  0  0  0  0  0
  -89.7716   26.1446    1.2964 C   0  0  0  0  0  0  0  0  0  0  0  0
  -89.4903   27.0992    2.2611 C   0  0  0  0  0  0  0  0  0  0  0  0
  -90.7737   27.7158    3.2989 Cl  0  0  0  0  0  0  0  0  0  0  0  0
  -88.2027   27.5660    2.4069 C   0  0  0  0  0  0  0  0  0  0  0  0
 20 21  1  0  0  0
 21 22  1  0  0  0
 22 23  1  0  0  0
 23 26  1  0  0  0
 26 27  2  0  0  0
 27 28  1  0  0  0
 28 29  2  0  0  0
 29 30  1  0  0  0
 30 31  1  0  0  0
 30 32  2  0  0  0
 23 24  2  0  0  0
 24 25  1  0  0  0
 25 19  1  0  0  0
 19 18  1  0  0  0
 18  1  1  0  0  0
  1  2  1  0  0  0
  2  3  2  0  0  0
  3  4  1  0  0  0
  4  5  2  0  0  0
  5  8  1  0  0  0
  8  9  1  0  0  0
  9 14  1  0  0  0
 14 15  2  0  0  0
 14 16  1  0  0  0
  9 10  1  0  0  0
 10 11  1  0  0  0
 11 12  1  0  0  0
 12 13  1  0  0  0
  5  6  1  0  0  0
  6  7  2  0  0  0
 25 21  2  0  0  0
  7  2  1  0  0  0
 32 26  1  0  0  0
 13  9  1  0  0  0
 16 17  1  0  0  0
M  END
> <minimizedAffinity>
-9.12803

> <CNNscore>
0.5848551393

> <CNNaffinity>
6.9753904343

> <CNN_VS>
4.0795931816

> <CNNaffinity_variance>
0.1986498684

$$$$
[H]OC(=O)C1(C([H])([H])c2c([H])nc(OC([H])([H])C([H])([H])c3nc(-c4c([H])c([H])c([H])c(Cl)c4[H])oc3C([H])([H])[H])c([H])c2[H])OC([H])([H])C([H])([H])C1([H])[H]


 32 35  0  0  0  0  0  0  0  0999 V2000
  -84.3820   32.0738    0.5179 O   0  0  0  0  0  0  0  0  0  0  0  0
  -85.4548   32.4373   -0.2776 C   0  0  0  0  0  0  0  0  0  0  0  0
  -86.6396   31.6857   -0.2123 C   0  0  0  0  0  0  0  0  0  0  0  0
  -87.7264   32.0257   -0.9949 C   0  0  0  0  0  0  0  0  0  0  0  0
  -87.6909   33.1012   -1.8588 C   0  0  0  0  0  0  0  0  0  0  0  0
  -86.5145   33.7999   -1.8856 C   0  0  0  0  0  0  0  0  0  0  0  0
  -85.4649   33.4640   -1.1234 N   0  0  0  0  0  0  0  0  0  0  0  0
  -88.8444   33.4604   -2.6833 C   0  0  0  0  0  0  0  0  0  0  0  0
  -88.7364   33.2401   -4.1476 C   0  0  0  0  0  0  0  0  0  0  0  0
  -87.7930   32.0849   -4.4483 C   0  0  0  0  0  0  0  0  0  0  0  0
  -88.6805   30.9116   -4.0821 C   0  0  0  0  0  0  0  0  0  0  0  0
  -90.0413   31.4418   -4.3749 C   0  0  0  0  0  0  0  0  0  0  0  0
  -89.9880   32.7929   -4.6079 O   0  0  0  0  0  0  0  0  0  0  0  0
  -88.3910   34.4296   -4.9531 C   0  0  0  0  0  0  0  0  0  0  0  0
  -87.2622   35.0192   -4.8168 O   0  0  0  0  0  0  0  0  0  0  0  0
  -89.2221   35.0069   -5.8989 O   0  0  0  0  0  0  0  0  0  0  0  0
  -88.8063   35.2786   -6.7787 H   0  0  0  0  0  0  0  0  0  0  0  0
  -83.5160   30.9991    0.3176 C   0  0  0  0  0  0  0  0  0  0  0  0
  -83.1921   30.3626    1.6614 C   0  0  0  0  0  0  0  0  0  0  0  0
  -82.5124   27.4840    2.7635 C   0  0  0  0  0  0  0  0  0  0  0  0
  -83.8419   27.9756    2.3161 C   0  0  0  0  0  0  0  0  0  0  0  0
  -84.9546   27.2988    2.3003 O   0  0  0  0  0  0  0  0  0  0  0  0
  -85.9440   28.0182    1.8511 C   0  0  0  0  0  0  0  0  0  0  0  0
  -85.4432   29.2291    1.5600 N   0  0  0  0  0  0  0  0  0  0  0  0
  -84.1280   29.2479    1.8359 C   0  0  0  0  0  0  0  0  0  0  0  0
  -87.3298   27.6040    1.6897 C   0  0  0  0  0  0  0  0  0  0  0  0
  -87.8282   26.4029    2.1445 C   0  0  0  0  0  0  0  0  0  0  0  0
  -89.1494   26.0408    1.9776 C   0  0  0  0  0  0  0  0  0  0  0  0
  -90.0367   26.8807    1.3382 C   0  0  0  0  0  0  0  0  0  0  0  0
  -89.5703   28.0979    0.8672 C   0  0  0  0  0  0  0  0  0  0  0  0
  -90.6634   29.2074    0.0435 Cl  0  0  0  0  0  0  0  0  0  0  0  0
  -88.2478   28.4391    1.0447 C   0  0  0  0  0  0  0  0  0  0  0  0
 20 21  1  0  0  0
 21 22  1  0  0  0
 22 23  1  0  0  0
 23 26  1  0  0  0
 26 27  2  0  0  0
 27 28  1  0  0  0
 28 29  2  0  0  0
 29 30  1  0  0  0
 30 31  1  0  0  0
 30 32  2  0  0  0
 23 24  2  0  0  0
 24 25  1  0  0  0
 25 19  1  0  0  0
 19 18  1  0  0  0
 18  1  1  0  0  0
  1  2  1  0  0  0
  2  3  2  0  0  0
  3  4  1  0  0  0
  4  5  2  0  0  0
  5  8  1  0  0  0
  8  9  1  0  0  0
  9 14  1  0  0  0
 14 15  2  0  0  0
 14 16  1  0  0  0
  9 10  1  0  0  0
 10 11  1  0  0  0
 11 12  1  0  0  0
 12 13  1  0  0  0
  5  6  1  0  0  0
  6  7  2  0  0  0
 25 21  2  0  0  0
  7  2  1  0  0  0
 32 26  1  0  0  0
 13  9  1  0  0  0
 16 17  1  0  0  0
M  END
> <minimizedAffinity>
-8.63356

> <CNNscore>
0.4900325537

> <CNNaffinity>
6.9255990982

> <CNN_VS>
3.3937690258

> <CNNaffinity_variance>
0.1347369403

$$$$
[H]OC(=O)C1(C([H])([H])c2c([H])nc(OC([H])([H])C([H])([H])c3nc(-c4c([H])c([H])c([H])c(Cl)c4[H])oc3C([H])([H])[H])c([H])c2[H])OC([H])([H])C([H])([H])C1([H])[H]


 32 35  0  0  0  0  0  0  0  0999 V2000
  -84.3688   32.0913    0.6167 O   0  0  0  0  0  0  0  0  0  0  0  0
  -85.4974   32.2426   -0.1700 C   0  0  0  0  0  0  0  0  0  0  0  0
  -86.5915   31.3852    0.0324 C   0  0  0  0  0  0  0  0  0  0  0  0
  -87.7312   31.5134   -0.7383 C   0  0  0  0  0  0  0  0  0  0  0  0
  -87.8377   32.4746   -1.7227 C   0  0  0  0  0  0  0  0  0  0  0  0
  -86.7451   33.2835   -1.8805 C   0  0  0  0  0  0  0  0  0  0  0  0
  -85.6434   33.1530   -1.1290 N   0  0  0  0  0  0  0  0  0  0  0  0
  -89.0469   32.6097   -2.5345 C   0  0  0  0  0  0  0  0  0  0  0  0
  -89.3188   31.5533   -3.5417 C   0  0  0  0  0  0  0  0  0  0  0  0
  -90.3009   30.5289   -2.9933 C   0  0  0  0  0  0  0  0  0  0  0  0
  -91.5935   31.3143   -3.0973 C   0  0  0  0  0  0  0  0  0  0  0  0
  -91.3301   32.2025   -4.2636 C   0  0  0  0  0  0  0  0  0  0  0  0
  -90.0048   32.1499   -4.6149 O   0  0  0  0  0  0  0  0  0  0  0  0
  -88.1293   30.8919   -4.1168 C   0  0  0  0  0  0  0  0  0  0  0  0
  -87.8717   29.6609   -3.8748 O   0  0  0  0  0  0  0  0  0  0  0  0
  -87.2065   31.5131   -4.9423 O   0  0  0  0  0  0  0  0  0  0  0  0
  -86.8958   31.0038   -5.7576 H   0  0  0  0  0  0  0  0  0  0  0  0
  -84.2857   31.4404    1.8473 C   0  0  0  0  0  0  0  0  0  0  0  0
  -83.3335   30.2597    1.7237 C   0  0  0  0  0  0  0  0  0  0  0  0
  -82.3664   27.4499    2.7878 C   0  0  0  0  0  0  0  0  0  0  0  0
  -83.7330   27.8040    2.3223 C   0  0  0  0  0  0  0  0  0  0  0  0
  -84.7654   27.0116    2.2719 O   0  0  0  0  0  0  0  0  0  0  0  0
  -85.8185   27.6288    1.8156 C   0  0  0  0  0  0  0  0  0  0  0  0
  -85.4465   28.8923    1.5563 N   0  0  0  0  0  0  0  0  0  0  0  0
  -84.1462   29.0473    1.8591 C   0  0  0  0  0  0  0  0  0  0  0  0
  -87.1481   27.0709    1.6187 C   0  0  0  0  0  0  0  0  0  0  0  0
  -87.4539   26.1446    0.6459 C   0  0  0  0  0  0  0  0  0  0  0  0
  -88.7256   25.6328    0.4868 C   0  0  0  0  0  0  0  0  0  0  0  0
  -89.7570   26.0355    1.3088 C   0  0  0  0  0  0  0  0  0  0  0  0
  -89.4862   26.9665    2.2992 C   0  0  0  0  0  0  0  0  0  0  0  0
  -90.7689   27.5138    3.3760 Cl  0  0  0  0  0  0  0  0  0  0  0  0
  -88.2097   27.4642    2.4401 C   0  0  0  0  0  0  0  0  0  0  0  0
 20 21  1  0  0  0
 21 22  1  0  0  0
 22 23  1  0  0  0
 23 26  1  0  0  0
 26 27  2  0  0  0
 27 28  1  0  0  0
 28 29  2  0  0  0
 29 30  1  0  0  0
 30 31  1  0  0  0
 30 32  2  0  0  0
 23 24  2  0  0  0
 24 25  1  0  0  0
 25 19  1  0  0  0
 19 18  1  0  0  0
 18  1  1  0  0  0
  1  2  1  0  0  0
  2  3  2  0  0  0
  3  4  1  0  0  0
  4  5  2  0  0  0
  5  8  1  0  0  0
  8  9  1  0  0  0
  9 14  1  0  0  0
 14 15  2  0  0  0
 14 16  1  0  0  0
  9 10  1  0  0  0
 10 11  1  0  0  0
 11 12  1  0  0  0
 12 13  1  0  0  0
  5  6  1  0  0  0
  6  7  2  0  0  0
 25 21  2  0  0  0
  7  2  1  0  0  0
 32 26  1  0  0  0
 13  9  1  0  0  0
 16 17  1  0  0  0
M  END
> <minimizedAffinity>
-8.93397

> <CNNscore>
0.4053652883

> <CNNaffinity>
6.8952798843

> <CNN_VS>
2.7951071262

> <CNNaffinity_variance>
0.1239678487

$$$$
[H]OC(=O)C1(C([H])([H])c2c([H])nc(OC([H])([H])C([H])([H])c3nc(-c4c([H])c([H])c([H])c(Cl)c4[H])oc3C([H])([H])[H])c([H])c2[H])OC([H])([H])C([H])([H])C1([H])[H]


 32 35  0  0  0  0  0  0  0  0999 V2000
  -89.0390   30.1331   -3.9745 O   0  0  0  0  0  0  0  0  0  0  0  0
  -88.8890   29.5689   -2.7196 C   0  0  0  0  0  0  0  0  0  0  0  0
  -87.7556   28.7826   -2.4549 C   0  0  0  0  0  0  0  0  0  0  0  0
  -87.5798   28.2069   -1.2111 C   0  0  0  0  0  0  0  0  0  0  0  0
  -88.4976   28.3794   -0.1951 C   0  0  0  0  0  0  0  0  0  0  0  0
  -89.5836   29.1527   -0.5038 C   0  0  0  0  0  0  0  0  0  0  0  0
  -89.7469   29.7077   -1.7124 N   0  0  0  0  0  0  0  0  0  0  0  0
  -88.3067   27.7714    1.1215 C   0  0  0  0  0  0  0  0  0  0  0  0
  -89.1860   26.6315    1.4848 C   0  0  0  0  0  0  0  0  0  0  0  0
  -88.8614   26.1280    2.8834 C   0  0  0  0  0  0  0  0  0  0  0  0
  -89.5055   27.2182    3.7170 C   0  0  0  0  0  0  0  0  0  0  0  0
  -90.6281   27.6613    2.8441 C   0  0  0  0  0  0  0  0  0  0  0  0
  -90.5007   27.1200    1.5898 O   0  0  0  0  0  0  0  0  0  0  0  0
  -89.2262   25.5164    0.5163 C   0  0  0  0  0  0  0  0  0  0  0  0
  -90.3118   25.1962   -0.0832 O   0  0  0  0  0  0  0  0  0  0  0  0
  -88.1365   24.7330    0.1737 O   0  0  0  0  0  0  0  0  0  0  0  0
  -88.0036   24.5250   -0.8060 H   0  0  0  0  0  0  0  0  0  0  0  0
  -88.4708   31.3214   -4.4328 C   0  0  0  0  0  0  0  0  0  0  0  0
  -88.9461   32.4717   -3.5572 C   0  0  0  0  0  0  0  0  0  0  0  0
  -87.6606   35.3345   -3.2179 C   0  0  0  0  0  0  0  0  0  0  0  0
  -87.2451   34.0841   -2.5297 C   0  0  0  0  0  0  0  0  0  0  0  0
  -86.2755   33.9569   -1.6696 O   0  0  0  0  0  0  0  0  0  0  0  0
  -86.1685   32.7279   -1.2497 C   0  0  0  0  0  0  0  0  0  0  0  0
  -87.1233   32.0198   -1.8733 N   0  0  0  0  0  0  0  0  0  0  0  0
  -87.8229   32.8299   -2.6861 C   0  0  0  0  0  0  0  0  0  0  0  0
  -85.2057   32.2071   -0.2907 C   0  0  0  0  0  0  0  0  0  0  0  0
  -83.8682   32.5374   -0.2917 C   0  0  0  0  0  0  0  0  0  0  0  0
  -82.9808   32.0276    0.6340 C   0  0  0  0  0  0  0  0  0  0  0  0
  -83.4050   31.1529    1.6120 C   0  0  0  0  0  0  0  0  0  0  0  0
  -84.7445   30.7980    1.6437 C   0  0  0  0  0  0  0  0  0  0  0  0
  -85.3374   29.6840    2.8733 Cl  0  0  0  0  0  0  0  0  0  0  0  0
  -85.6127   31.3188    0.7100 C   0  0  0  0  0  0  0  0  0  0  0  0
 20 21  1  0  0  0
 21 22  1  0  0  0
 22 23  1  0  0  0
 23 26  1  0  0  0
 26 27  2  0  0  0
 27 28  1  0  0  0
 28 29  2  0  0  0
 29 30  1  0  0  0
 30 31  1  0  0  0
 30 32  2  0  0  0
 23 24  2  0  0  0
 24 25  1  0  0  0
 25 19  1  0  0  0
 19 18  1  0  0  0
 18  1  1  0  0  0
  1  2  1  0  0  0
  2  3  2  0  0  0
  3  4  1  0  0  0
  4  5  2  0  0  0
  5  8  1  0  0  0
  8  9  1  0  0  0
  9 14  1  0  0  0
 14 15  2  0  0  0
 14 16  1  0  0  0
  9 10  1  0  0  0
 10 11  1  0  0  0
 11 12  1  0  0  0
 12 13  1  0  0  0
  5  6  1  0  0  0
  6  7  2  0  0  0
 25 21  2  0  0  0
  7  2  1  0  0  0
 32 26  1  0  0  0
 13  9  1  0  0  0
 16 17  1  0  0  0
M  END
> <minimizedAffinity>
-9.03858

> <CNNscore>
0.3200407028

> <CNNaffinity>
6.5700330734

> <CNN_VS>
2.1026780605

> <CNNaffinity_variance>
0.4653909206

$$$$
[H]OC(=O)C1(C([H])([H])c2c([H])nc(OC([H])([H])C([H])([H])c3nc(-c4c([H])c([H])c([H])c(Cl)c4[H])oc3C([H])([H])[H])c([H])c2[H])OC([H])([H])C([H])([H])C1([H])[H]


 32 35  0  0  0  0  0  0  0  0999 V2000
  -84.5303   32.0751    0.6589 O   0  0  0  0  0  0  0  0  0  0  0  0
  -85.6013   32.3564   -0.1714 C   0  0  0  0  0  0  0  0  0  0  0  0
  -86.7149   31.5002   -0.1642 C   0  0  0  0  0  0  0  0  0  0  0  0
  -87.7983   31.7566   -0.9826 C   0  0  0  0  0  0  0  0  0  0  0  0
  -87.8284   32.8478   -1.8267 C   0  0  0  0  0  0  0  0  0  0  0  0
  -86.7198   33.6498   -1.7967 C   0  0  0  0  0  0  0  0  0  0  0  0
  -85.6730   33.3945   -1.0001 N   0  0  0  0  0  0  0  0  0  0  0  0
  -88.9783   33.1181   -2.6893 C   0  0  0  0  0  0  0  0  0  0  0  0
  -88.9008   32.6607   -4.0996 C   0  0  0  0  0  0  0  0  0  0  0  0
  -90.1020   33.1559   -4.8912 C   0  0  0  0  0  0  0  0  0  0  0  0
  -89.7191   34.6109   -5.0773 C   0  0  0  0  0  0  0  0  0  0  0  0
  -88.2311   34.5464   -5.0914 C   0  0  0  0  0  0  0  0  0  0  0  0
  -87.8028   33.3032   -4.6995 O   0  0  0  0  0  0  0  0  0  0  0  0
  -88.6990   31.2101   -4.2949 C   0  0  0  0  0  0  0  0  0  0  0  0
  -87.7004   30.7619   -4.9598 O   0  0  0  0  0  0  0  0  0  0  0  0
  -89.5386   30.2259   -3.7996 O   0  0  0  0  0  0  0  0  0  0  0  0
  -89.1067   29.4183   -3.3731 H   0  0  0  0  0  0  0  0  0  0  0  0
  -84.5543   31.3220    1.8324 C   0  0  0  0  0  0  0  0  0  0  0  0
  -83.5307   30.2009    1.7266 C   0  0  0  0  0  0  0  0  0  0  0  0
  -82.3919   27.4586    2.7972 C   0  0  0  0  0  0  0  0  0  0  0  0
  -83.7791   27.7279    2.3360 C   0  0  0  0  0  0  0  0  0  0  0  0
  -84.7621   26.8745    2.2927 O   0  0  0  0  0  0  0  0  0  0  0  0
  -85.8522   27.4254    1.8384 C   0  0  0  0  0  0  0  0  0  0  0  0
  -85.5580   28.7079    1.5730 N   0  0  0  0  0  0  0  0  0  0  0  0
  -84.2683   28.9422    1.8699 C   0  0  0  0  0  0  0  0  0  0  0  0
  -87.1465   26.7876    1.6490 C   0  0  0  0  0  0  0  0  0  0  0  0
  -88.0404   26.5504    2.6702 C   0  0  0  0  0  0  0  0  0  0  0  0
  -89.2620   25.9451    2.4568 C   0  0  0  0  0  0  0  0  0  0  0  0
  -89.6419   25.5471    1.1923 C   0  0  0  0  0  0  0  0  0  0  0  0
  -88.7676   25.7699    0.1401 C   0  0  0  0  0  0  0  0  0  0  0  0
  -89.2054   25.2805   -1.4949 Cl  0  0  0  0  0  0  0  0  0  0  0  0
  -87.5534   26.3756    0.3758 C   0  0  0  0  0  0  0  0  0  0  0  0
 20 21  1  0  0  0
 21 22  1  0  0  0
 22 23  1  0  0  0
 23 26  1  0  0  0
 26 27  2  0  0  0
 27 28  1  0  0  0
 28 29  2  0  0  0
 29 30  1  0  0  0
 30 31  1  0  0  0
 30 32  2  0  0  0
 23 24  2  0  0  0
 24 25  1  0  0  0
 25 19  1  0  0  0
 19 18  1  0  0  0
 18  1  1  0  0  0
  1  2  1  0  0  0
  2  3  2  0  0  0
  3  4  1  0  0  0
  4  5  2  0  0  0
  5  8  1  0  0  0
  8  9  1  0  0  0
  9 14  1  0  0  0
 14 15  2  0  0  0
 14 16  1  0  0  0
  9 10  1  0  0  0
 10 11  1  0  0  0
 11 12  1  0  0  0
 12 13  1  0  0  0
  5  6  1  0  0  0
  6  7  2  0  0  0
 25 21  2  0  0  0
  7  2  1  0  0  0
 32 26  1  0  0  0
 13  9  1  0  0  0
 16 17  1  0  0  0
M  END
> <minimizedAffinity>
-9.06004

> <CNNscore>
0.2296451628

> <CNNaffinity>
6.6354293823

> <CNN_VS>
1.5237942934

> <CNNaffinity_variance>
0.2382173091

$$$$
[H]OC(=O)C1(C([H])([H])c2c([H])nc(OC([H])([H])C([H])([H])c3nc(-c4c([H])c([H])c([H])c(Cl)c4[H])oc3C([H])([H])[H])c([H])c2[H])OC([H])([H])C([H])([H])C1([H])[H]


 32 35  0  0  0  0  0  0  0  0999 V2000
  -91.4127   28.4047    0.4964 O   0  0  0  0  0  0  0  0  0  0  0  0
  -90.9405   29.4173   -0.3206 C   0  0  0  0  0  0  0  0  0  0  0  0
  -89.9704   30.3019    0.1788 C   0  0  0  0  0  0  0  0  0  0  0  0
  -89.4810   31.3220   -0.6144 C   0  0  0  0  0  0  0  0  0  0  0  0
  -89.9198   31.5091   -1.9093 C   0  0  0  0  0  0  0  0  0  0  0  0
  -90.8650   30.6218   -2.3477 C   0  0  0  0  0  0  0  0  0  0  0  0
  -91.3346   29.6350   -1.5724 N   0  0  0  0  0  0  0  0  0  0  0  0
  -89.3971   32.5879   -2.7474 C   0  0  0  0  0  0  0  0  0  0  0  0
  -88.1559   32.3193   -3.5166 C   0  0  0  0  0  0  0  0  0  0  0  0
  -87.7359   33.5510   -4.3047 C   0  0  0  0  0  0  0  0  0  0  0  0
  -87.1612   34.4006   -3.1884 C   0  0  0  0  0  0  0  0  0  0  0  0
  -86.6601   33.3719   -2.2349 C   0  0  0  0  0  0  0  0  0  0  0  0
  -87.1121   32.1271   -2.5936 O   0  0  0  0  0  0  0  0  0  0  0  0
  -88.1814   31.1208   -4.3803 C   0  0  0  0  0  0  0  0  0  0  0  0
  -87.7268   29.9962   -3.9694 O   0  0  0  0  0  0  0  0  0  0  0  0
  -88.6783   31.0939   -5.6730 O   0  0  0  0  0  0  0  0  0  0  0  0
  -89.2626   30.3107   -5.9298 H   0  0  0  0  0  0  0  0  0  0  0  0
  -90.8732   27.9890    1.7134 C   0  0  0  0  0  0  0  0  0  0  0  0
  -90.1104   26.6892    1.5027 C   0  0  0  0  0  0  0  0  0  0  0  0
  -88.9553   26.0362   -1.3612 C   0  0  0  0  0  0  0  0  0  0  0  0
  -88.2658   26.7720   -0.2691 C   0  0  0  0  0  0  0  0  0  0  0  0
  -87.0634   27.2711   -0.3080 O   0  0  0  0  0  0  0  0  0  0  0  0
  -86.7536   27.8568    0.8142 C   0  0  0  0  0  0  0  0  0  0  0  0
  -87.8158   27.7297    1.6250 N   0  0  0  0  0  0  0  0  0  0  0  0
  -88.7881   27.0558    0.9871 C   0  0  0  0  0  0  0  0  0  0  0  0
  -85.5024   28.5240    1.1414 C   0  0  0  0  0  0  0  0  0  0  0  0
  -84.6391   28.0935    2.1249 C   0  0  0  0  0  0  0  0  0  0  0  0
  -83.4579   28.7481    2.4092 C   0  0  0  0  0  0  0  0  0  0  0  0
  -83.0897   29.8773    1.7087 C   0  0  0  0  0  0  0  0  0  0  0  0
  -83.9341   30.3396    0.7115 C   0  0  0  0  0  0  0  0  0  0  0  0
  -83.5098   31.7781   -0.2131 Cl  0  0  0  0  0  0  0  0  0  0  0  0
  -85.1082   29.6708    0.4445 C   0  0  0  0  0  0  0  0  0  0  0  0
 20 21  1  0  0  0
 21 22  1  0  0  0
 22 23  1  0  0  0
 23 26  1  0  0  0
 26 27  2  0  0  0
 27 28  1  0  0  0
 28 29  2  0  0  0
 29 30  1  0  0  0
 30 31  1  0  0  0
 30 32  2  0  0  0
 23 24  2  0  0  0
 24 25  1  0  0  0
 25 19  1  0  0  0
 19 18  1  0  0  0
 18  1  1  0  0  0
  1  2  1  0  0  0
  2  3  2  0  0  0
  3  4  1  0  0  0
  4  5  2  0  0  0
  5  8  1  0  0  0
  8  9  1  0  0  0
  9 14  1  0  0  0
 14 15  2  0  0  0
 14 16  1  0  0  0
  9 10  1  0  0  0
 10 11  1  0  0  0
 11 12  1  0  0  0
 12 13  1  0  0  0
  5  6  1  0  0  0
  6  7  2  0  0  0
 25 21  2  0  0  0
  7  2  1  0  0  0
 32 26  1  0  0  0
 13  9  1  0  0  0
 16 17  1  0  0  0
M  END
> <minimizedAffinity>
-9.16013

> <CNNscore>
0.2102721930

> <CNNaffinity>
6.2047657967

> <CNN_VS>
1.3046897650

> <CNNaffinity_variance>
0.4503489137

$$$$
[H]OC(=O)C1(C([H])([H])c2c([H])nc(OC([H])([H])C([H])([H])c3nc(-c4c([H])c([H])c([H])c(Cl)c4[H])oc3C([H])([H])[H])c([H])c2[H])OC([H])([H])C([H])([H])C1([H])[H]


 32 35  0  0  0  0  0  0  0  0999 V2000
  -89.4927   30.3122   -0.4070 O   0  0  0  0  0  0  0  0  0  0  0  0
  -90.0586   29.0746   -0.1550 C   0  0  0  0  0  0  0  0  0  0  0  0
  -90.1206   28.1278   -1.1908 C   0  0  0  0  0  0  0  0  0  0  0  0
  -90.6801   26.8842   -0.9677 C   0  0  0  0  0  0  0  0  0  0  0  0
  -91.1923   26.5288    0.2634 C   0  0  0  0  0  0  0  0  0  0  0  0
  -91.1084   27.4860    1.2379 C   0  0  0  0  0  0  0  0  0  0  0  0
  -90.5643   28.6898    1.0138 N   0  0  0  0  0  0  0  0  0  0  0  0
  -91.7808   25.2102    0.4970 C   0  0  0  0  0  0  0  0  0  0  0  0
  -90.9288   24.1845    1.1501 C   0  0  0  0  0  0  0  0  0  0  0  0
  -91.5244   22.7966    0.9672 C   0  0  0  0  0  0  0  0  0  0  0  0
  -91.1627   22.5384   -0.4822 C   0  0  0  0  0  0  0  0  0  0  0  0
  -89.9059   23.3223   -0.6383 C   0  0  0  0  0  0  0  0  0  0  0  0
  -89.7090   24.1319    0.4518 O   0  0  0  0  0  0  0  0  0  0  0  0
  -90.5934   24.4347    2.5671 C   0  0  0  0  0  0  0  0  0  0  0  0
  -91.4459   24.2222    3.4990 O   0  0  0  0  0  0  0  0  0  0  0  0
  -89.3708   24.9085    3.0137 O   0  0  0  0  0  0  0  0  0  0  0  0
  -88.9689   24.4632    3.8267 H   0  0  0  0  0  0  0  0  0  0  0  0
  -89.8007   31.1768   -1.4571 C   0  0  0  0  0  0  0  0  0  0  0  0
  -89.3536   32.5847   -1.0914 C   0  0  0  0  0  0  0  0  0  0  0  0
  -87.2859   34.3983   -2.6402 C   0  0  0  0  0  0  0  0  0  0  0  0
  -86.9716   33.3345   -1.6507 C   0  0  0  0  0  0  0  0  0  0  0  0
  -85.7860   32.9674   -1.2559 O   0  0  0  0  0  0  0  0  0  0  0  0
  -85.8518   32.0060   -0.3786 C   0  0  0  0  0  0  0  0  0  0  0  0
  -87.1538   31.7360   -0.1951 N   0  0  0  0  0  0  0  0  0  0  0  0
  -87.8930   32.5452   -0.9730 C   0  0  0  0  0  0  0  0  0  0  0  0
  -84.7387   31.3424    0.2836 C   0  0  0  0  0  0  0  0  0  0  0  0
  -83.4335   31.7766    0.2082 C   0  0  0  0  0  0  0  0  0  0  0  0
  -82.4001   31.1254    0.8506 C   0  0  0  0  0  0  0  0  0  0  0  0
  -82.6376   29.9960    1.6052 C   0  0  0  0  0  0  0  0  0  0  0  0
  -83.9393   29.5301    1.7037 C   0  0  0  0  0  0  0  0  0  0  0  0
  -84.2961   28.0912    2.6559 Cl  0  0  0  0  0  0  0  0  0  0  0  0
  -84.9553   30.1955    1.0543 C   0  0  0  0  0  0  0  0  0  0  0  0
 20 21  1  0  0  0
 21 22  1  0  0  0
 22 23  1  0  0  0
 23 26  1  0  0  0
 26 27  2  0  0  0
 27 28  1  0  0  0
 28 29  2  0  0  0
 29 30  1  0  0  0
 30 31  1  0  0  0
 30 32  2  0  0  0
 23 24  2  0  0  0
 24 25  1  0  0  0
 25 19  1  0  0  0
 19 18  1  0  0  0
 18  1  1  0  0  0
  1  2  1  0  0  0
  2  3  2  0  0  0
  3  4  1  0  0  0
  4  5  2  0  0  0
  5  8  1  0  0  0
  8  9  1  0  0  0
  9 14  1  0  0  0
 14 15  2  0  0  0
 14 16  1  0  0  0
  9 10  1  0  0  0
 10 11  1  0  0  0
 11 12  1  0  0  0
 12 13  1  0  0  0
  5  6  1  0  0  0
  6  7  2  0  0  0
 25 21  2  0  0  0
  7  2  1  0  0  0
 32 26  1  0  0  0
 13  9  1  0  0  0
 16 17  1  0  0  0
M  END
> <minimizedAffinity>
-8.64990

> <CNNscore>
0.1975307763

> <CNNaffinity>
5.8991332054

> <CNN_VS>
1.1652603149

> <CNNaffinity_variance>
0.4093327522

$$$$
[H]OC(=O)C1(C([H])([H])c2c([H])nc(OC([H])([H])C([H])([H])c3nc(-c4c([H])c([H])c([H])c(Cl)c4[H])oc3C([H])([H])[H])c([H])c2[H])OC([H])([H])C([H])([H])C1([H])[H]


 32 35  0  0  0  0  0  0  0  0999 V2000
  -90.2521   30.2211   -1.2602 O   0  0  0  0  0  0  0  0  0  0  0  0
  -90.2387   28.8395   -1.3419 C   0  0  0  0  0  0  0  0  0  0  0  0
  -90.3157   28.2288   -2.6045 C   0  0  0  0  0  0  0  0  0  0  0  0
  -90.3045   26.8516   -2.7161 C   0  0  0  0  0  0  0  0  0  0  0  0
  -90.2185   26.0341   -1.6078 C   0  0  0  0  0  0  0  0  0  0  0  0
  -90.1465   26.6776   -0.4021 C   0  0  0  0  0  0  0  0  0  0  0  0
  -90.1579   28.0137   -0.3020 N   0  0  0  0  0  0  0  0  0  0  0  0
  -90.2034   24.5766   -1.7297 C   0  0  0  0  0  0  0  0  0  0  0  0
  -91.3335   23.8258   -1.1268 C   0  0  0  0  0  0  0  0  0  0  0  0
  -92.6575   24.5075   -1.4381 C   0  0  0  0  0  0  0  0  0  0  0  0
  -92.8326   24.1034   -2.8888 C   0  0  0  0  0  0  0  0  0  0  0  0
  -92.1317   22.7900   -2.9373 C   0  0  0  0  0  0  0  0  0  0  0  0
  -91.4217   22.5840   -1.7814 O   0  0  0  0  0  0  0  0  0  0  0  0
  -91.2142   23.5342    0.3168 C   0  0  0  0  0  0  0  0  0  0  0  0
  -92.2487   23.4698    1.0691 O   0  0  0  0  0  0  0  0  0  0  0  0
  -90.0173   23.3119    0.9776 O   0  0  0  0  0  0  0  0  0  0  0  0
  -89.9847   22.5447    1.6342 H   0  0  0  0  0  0  0  0  0  0  0  0
  -90.7437   31.1126   -2.2133 C   0  0  0  0  0  0  0  0  0  0  0  0
  -89.6280   31.4692   -3.1849 C   0  0  0  0  0  0  0  0  0  0  0  0
  -88.9889   34.5354   -2.7943 C   0  0  0  0  0  0  0  0  0  0  0  0
  -88.2462   33.3889   -2.2082 C   0  0  0  0  0  0  0  0  0  0  0  0
  -87.2010   33.4555   -1.4340 O   0  0  0  0  0  0  0  0  0  0  0  0
  -86.7862   32.2690   -1.0897 C   0  0  0  0  0  0  0  0  0  0  0  0
  -87.6098   31.3847   -1.6741 N   0  0  0  0  0  0  0  0  0  0  0  0
  -88.5410   32.0425   -2.3858 C   0  0  0  0  0  0  0  0  0  0  0  0
  -85.6511   31.9475   -0.2376 C   0  0  0  0  0  0  0  0  0  0  0  0
  -84.4068   32.5237   -0.3694 C   0  0  0  0  0  0  0  0  0  0  0  0
  -83.3508   32.1984    0.4574 C   0  0  0  0  0  0  0  0  0  0  0  0
  -83.5023   31.2683    1.4641 C   0  0  0  0  0  0  0  0  0  0  0  0
  -84.7409   30.6677    1.6264 C   0  0  0  0  0  0  0  0  0  0  0  0
  -84.9870   29.4731    2.8978 Cl  0  0  0  0  0  0  0  0  0  0  0  0
  -85.7810   31.0074    0.7899 C   0  0  0  0  0  0  0  0  0  0  0  0
 20 21  1  0  0  0
 21 22  1  0  0  0
 22 23  1  0  0  0
 23 26  1  0  0  0
 26 27  2  0  0  0
 27 28  1  0  0  0
 28 29  2  0  0  0
 29 30  1  0  0  0
 30 31  1  0  0  0
 30 32  2  0  0  0
 23 24  2  0  0  0
 24 25  1  0  0  0
 25 19  1  0  0  0
 19 18  1  0  0  0
 18  1  1  0  0  0
  1  2  1  0  0  0
  2  3  2  0  0  0
  3  4  1  0  0  0
  4  5  2  0  0  0
  5  8  1  0  0  0
  8  9  1  0  0  0
  9 14  1  0  0  0
 14 15  2  0  0  0
 14 16  1  0  0  0
  9 10  1  0  0  0
 10 11  1  0  0  0
 11 12  1  0  0  0
 12 13  1  0  0  0
  5  6  1  0  0  0
  6  7  2  0  0  0
 25 21  2  0  0  0
  7  2  1  0  0  0
 32 26  1  0  0  0
 13  9  1  0  0  0
 16 17  1  0  0  0
M  END
> <minimizedAffinity>
-7.60348

> <CNNscore>
0.1905863881

> <CNNaffinity>
5.9220433235

> <CNN_VS>
1.1286607981

> <CNNaffinity_variance>
0.2796427608

$$$$
[H]OC(=O)C1(C([H])([H])c2c([H])nc(OC([H])([H])C([H])([H])c3nc(-c4c([H])c([H])c([H])c(Cl)c4[H])oc3C([H])([H])[H])c([H])c2[H])OC([H])([H])C([H])([H])C1([H])[H]


 32 35  0  0  0  0  0  0  0  0999 V2000
  -88.1535   30.8081   -4.5447 O   0  0  0  0  0  0  0  0  0  0  0  0
  -88.6987   30.0356   -3.5340 C   0  0  0  0  0  0  0  0  0  0  0  0
  -87.8447   29.2731   -2.7201 C   0  0  0  0  0  0  0  0  0  0  0  0
  -88.3614   28.4927   -1.7036 C   0  0  0  0  0  0  0  0  0  0  0  0
  -89.7168   28.4326   -1.4517 C   0  0  0  0  0  0  0  0  0  0  0  0
  -90.5053   29.1927   -2.2724 C   0  0  0  0  0  0  0  0  0  0  0  0
  -89.9967   29.9471   -3.2561 N   0  0  0  0  0  0  0  0  0  0  0  0
  -90.2600   27.6081   -0.3726 C   0  0  0  0  0  0  0  0  0  0  0  0
  -90.7890   26.2683   -0.7325 C   0  0  0  0  0  0  0  0  0  0  0  0
  -89.6809   25.3849   -1.2861 C   0  0  0  0  0  0  0  0  0  0  0  0
  -88.9535   25.0320   -0.0037 C   0  0  0  0  0  0  0  0  0  0  0  0
  -90.0507   25.0718    1.0028 C   0  0  0  0  0  0  0  0  0  0  0  0
  -91.1802   25.6276    0.4569 O   0  0  0  0  0  0  0  0  0  0  0  0
  -91.9678   26.2605   -1.6233 C   0  0  0  0  0  0  0  0  0  0  0  0
  -91.9035   25.7728   -2.8058 O   0  0  0  0  0  0  0  0  0  0  0  0
  -93.2132   26.7628   -1.2836 O   0  0  0  0  0  0  0  0  0  0  0  0
  -94.0208   26.2078   -1.5296 H   0  0  0  0  0  0  0  0  0  0  0  0
  -88.7081   31.9523   -5.1174 C   0  0  0  0  0  0  0  0  0  0  0  0
  -87.8132   33.1454   -4.8147 C   0  0  0  0  0  0  0  0  0  0  0  0
  -89.7037   33.8485   -2.3868 C   0  0  0  0  0  0  0  0  0  0  0  0
  -88.2959   33.3772   -2.3123 C   0  0  0  0  0  0  0  0  0  0  0  0
  -87.6008   33.1766   -1.2293 O   0  0  0  0  0  0  0  0  0  0  0  0
  -86.3964   32.7627   -1.5054 C   0  0  0  0  0  0  0  0  0  0  0  0
  -86.3072   32.6911   -2.8428 N   0  0  0  0  0  0  0  0  0  0  0  0
  -87.4754   33.0676   -3.3903 C   0  0  0  0  0  0  0  0  0  0  0  0
  -85.3401   32.4368   -0.5588 C   0  0  0  0  0  0  0  0  0  0  0  0
  -84.0343   32.8544   -0.6943 C   0  0  0  0  0  0  0  0  0  0  0  0
  -83.0560   32.5299    0.2233 C   0  0  0  0  0  0  0  0  0  0  0  0
  -83.3521   31.7620    1.3298 C   0  0  0  0  0  0  0  0  0  0  0  0
  -84.6561   31.3238    1.4989 C   0  0  0  0  0  0  0  0  0  0  0  0
  -85.0865   30.3401    2.8958 Cl  0  0  0  0  0  0  0  0  0  0  0  0
  -85.6166   31.6595    0.5707 C   0  0  0  0  0  0  0  0  0  0  0  0
 20 21  1  0  0  0
 21 22  1  0  0  0
 22 23  1  0  0  0
 23 26  1  0  0  0
 26 27  2  0  0  0
 27 28  1  0  0  0
 28 29  2  0  0  0
 29 30  1  0  0  0
 30 31  1  0  0  0
 30 32  2  0  0  0
 23 24  2  0  0  0
 24 25  1  0  0  0
 25 19  1  0  0  0
 19 18  1  0  0  0
 18  1  1  0  0  0
  1  2  1  0  0  0
  2  3  2  0  0  0
  3  4  1  0  0  0
  4  5  2  0  0  0
  5  8  1  0  0  0
  8  9  1  0  0  0
  9 14  1  0  0  0
 14 15  2  0  0  0
 14 16  1  0  0  0
  9 10  1  0  0  0
 10 11  1  0  0  0
 11 12  1  0  0  0
 12 13  1  0  0  0
  5  6  1  0  0  0
  6  7  2  0  0  0
 25 21  2  0  0  0
  7  2  1  0  0  0
 32 26  1  0  0  0
 13  9  1  0  0  0
 16 17  1  0  0  0
M  END
> <minimizedAffinity>
-7.30130

> <CNNscore>
0.1797909886

> <CNNaffinity>
6.0365695953

> <CNN_VS>
1.0853208303

> <CNNaffinity_variance>
0.3118019998

$$$$
[H]OC(=O)C([H])([H])c1c([H])c([H])c(Oc2c([H])c([H])c(C(=O)N([H])C([H])(C([H])([H])[H])C([H])([H])[H])c([H])c2N([H])S(=O)(=O)c2c([H])c([H])c(Cl)c([H])c2Cl)c(OC([H])([H])[H])c1[H]


 40 42  0  0  0  0  0  0  0  0999 V2000
  -89.5710   26.7708   -1.0832 C   0  0  0  0  0  0  0  0  0  0  0  0
  -90.7653   26.1040   -1.0473 C   0  0  0  0  0  0  0  0  0  0  0  0
  -91.0771   25.2281   -0.0258 C   0  0  0  0  0  0  0  0  0  0  0  0
  -90.1740   25.0129    0.9839 C   0  0  0  0  0  0  0  0  0  0  0  0
  -88.9735   25.6900    0.9369 C   0  0  0  0  0  0  0  0  0  0  0  0
  -88.6260   26.5669   -0.0583 C   0  0  0  0  0  0  0  0  0  0  0  0
  -90.4687   24.0938    2.0903 C   0  0  0  0  0  0  0  0  0  0  0  0
  -91.0887   24.5750    3.0887 O   0  0  0  0  0  0  0  0  0  0  0  0
  -90.0853   22.7485    2.0487 N   0  0  0  0  0  0  0  0  0  0  0  0
  -89.5867   22.3376    1.2521 H   0  0  0  0  0  0  0  0  0  0  0  0
  -90.4033   21.8836    3.1744 C   0  0  0  0  0  0  0  0  0  0  0  0
  -90.7271   20.5210    2.5865 C   0  0  0  0  0  0  0  0  0  0  0  0
  -89.2502   21.8239    4.1296 C   0  0  0  0  0  0  0  0  0  0  0  0
  -87.3890   27.2633   -0.1306 N   0  0  0  0  0  0  0  0  0  0  0  0
  -86.9889   27.4944   -1.0818 H   0  0  0  0  0  0  0  0  0  0  0  0
  -86.5809   27.7078    1.3131 S   0  0  0  0  0  0  0  0  0  0  0  0
  -87.5571   27.9765    2.4530 O   0  0  0  0  0  0  0  0  0  0  0  0
  -85.6872   26.5320    1.7272 O   0  0  0  0  0  0  0  0  0  0  0  0
  -85.5624   29.0977    1.0307 C   0  0  0  0  0  0  0  0  0  0  0  0
  -85.9784   30.1032    0.2063 C   0  0  0  0  0  0  0  0  0  0  0  0
  -85.0945   31.1734    0.0107 C   0  0  0  0  0  0  0  0  0  0  0  0
  -83.8630   31.2316    0.6077 C   0  0  0  0  0  0  0  0  0  0  0  0
  -82.7813   32.5736    0.3494 Cl  0  0  0  0  0  0  0  0  0  0  0  0
  -83.4963   30.1926    1.4263 C   0  0  0  0  0  0  0  0  0  0  0  0
  -84.3134   29.1244    1.6551 C   0  0  0  0  0  0  0  0  0  0  0  0
  -83.8442   27.7840    2.7093 Cl  0  0  0  0  0  0  0  0  0  0  0  0
  -89.2593   27.6486   -2.1025 O   0  0  0  0  0  0  0  0  0  0  0  0
  -89.8230   29.8113   -1.1627 C   0  0  0  0  0  0  0  0  0  0  0  0
  -89.5568   31.1705   -1.1112 C   0  0  0  0  0  0  0  0  0  0  0  0
  -88.5561   31.7742   -1.8551 C   0  0  0  0  0  0  0  0  0  0  0  0
  -87.8018   30.9647   -2.6793 C   0  0  0  0  0  0  0  0  0  0  0  0
  -88.0497   29.6106   -2.7464 C   0  0  0  0  0  0  0  0  0  0  0  0
  -89.0660   29.0058   -1.9896 C   0  0  0  0  0  0  0  0  0  0  0  0
  -90.7515   29.3326    1.0290 C   0  0  0  0  0  0  0  0  0  0  0  0
  -90.8439   29.2573   -0.3864 O   0  0  0  0  0  0  0  0  0  0  0  0
  -88.2811   33.2356   -1.7898 C   0  0  0  0  0  0  0  0  0  0  0  0
  -87.3351   33.6195   -2.8672 C   0  0  0  0  0  0  0  0  0  0  0  0
  -87.6674   33.8957   -4.0368 O   0  0  0  0  0  0  0  0  0  0  0  0
  -85.9760   33.6682   -2.5214 O   0  0  0  0  0  0  0  0  0  0  0  0
  -85.6885   34.2830   -1.7759 H   0  0  0  0  0  0  0  0  0  0  0  0
 34 35  1  0  0  0
 35 28  1  0  0  0
 28 29  2  0  0  0
 29 30  1  0  0  0
 30 36  1  0  0  0
 36 37  1  0  0  0
 37 38  2  0  0  0
 37 39  1  0  0  0
 30 31  2  0  0  0
 31 32  1  0  0  0
 32 33  2  0  0  0
 33 27  1  0  0  0
 27  1  1  0  0  0
  1  2  2  0  0  0
  2  3  1  0  0  0
  3  4  2  0  0  0
  4  7  1  0  0  0
  7  8  2  0  0  0
  7  9  1  0  0  0
  9 11  1  0  0  0
 11 12  1  0  0  0
 11 13  1  0  0  0
  4  5  1  0  0  0
  5  6  2  0  0  0
  6 14  1  0  0  0
 14 16  1  0  0  0
 16 17  2  0  0  0
 16 18  2  0  0  0
 16 19  1  0  0  0
 19 20  2  0  0  0
 20 21  1  0  0  0
 21 22  2  0  0  0
 22 23  1  0  0  0
 22 24  1  0  0  0
 24 25  2  0  0  0
 25 26  1  0  0  0
 33 28  1  0  0  0
  6  1  1  0  0  0
 25 19  1  0  0  0
 39 40  1  0  0  0
  9 10  1  0  0  0
 14 15  1  0  0  0
M  END
> <minimizedAffinity>
-8.73537

> <CNNscore>
0.3141924143

> <CNNaffinity>
7.1005158424

> <CNN_VS>
2.2309281826

> <CNNaffinity_variance>
0.2636331320

$$$$
[H]OC(=O)C([H])([H])c1c([H])c([H])c(Oc2c([H])c([H])c(C(=O)N([H])C([H])(C([H])([H])[H])C([H])([H])[H])c([H])c2N([H])S(=O)(=O)c2c([H])c([H])c(Cl)c([H])c2Cl)c(OC([H])([H])[H])c1[H]


 40 42  0  0  0  0  0  0  0  0999 V2000
  -90.8364   28.9621   -1.9296 C   0  0  0  0  0  0  0  0  0  0  0  0
  -92.1773   28.9539   -2.2023 C   0  0  0  0  0  0  0  0  0  0  0  0
  -92.7606   29.9147   -3.0051 C   0  0  0  0  0  0  0  0  0  0  0  0
  -91.9858   30.9075   -3.5484 C   0  0  0  0  0  0  0  0  0  0  0  0
  -90.6359   30.9060   -3.2663 C   0  0  0  0  0  0  0  0  0  0  0  0
  -90.0188   29.9715   -2.4751 C   0  0  0  0  0  0  0  0  0  0  0  0
  -92.5659   31.9446   -4.4109 C   0  0  0  0  0  0  0  0  0  0  0  0
  -93.6062   32.5337   -3.9827 O   0  0  0  0  0  0  0  0  0  0  0  0
  -91.9998   32.2709   -5.6485 N   0  0  0  0  0  0  0  0  0  0  0  0
  -91.1588   31.8108   -6.0130 H   0  0  0  0  0  0  0  0  0  0  0  0
  -92.6179   33.3068   -6.4618 C   0  0  0  0  0  0  0  0  0  0  0  0
  -91.4828   34.0260   -7.1701 C   0  0  0  0  0  0  0  0  0  0  0  0
  -93.5898   32.7017   -7.4286 C   0  0  0  0  0  0  0  0  0  0  0  0
  -88.6322   29.9613   -2.1625 N   0  0  0  0  0  0  0  0  0  0  0  0
  -88.0617   29.1040   -2.4032 H   0  0  0  0  0  0  0  0  0  0  0  0
  -87.9232   31.3263   -1.4082 S   0  0  0  0  0  0  0  0  0  0  0  0
  -87.6003   32.4280   -2.4115 O   0  0  0  0  0  0  0  0  0  0  0  0
  -88.9416   31.8863   -0.4072 O   0  0  0  0  0  0  0  0  0  0  0  0
  -86.4919   30.8530   -0.5274 C   0  0  0  0  0  0  0  0  0  0  0  0
  -86.2338   29.5344   -0.2855 C   0  0  0  0  0  0  0  0  0  0  0  0
  -85.0777   29.2360    0.4490 C   0  0  0  0  0  0  0  0  0  0  0  0
  -84.2290   30.2050    0.9148 C   0  0  0  0  0  0  0  0  0  0  0  0
  -82.7969   29.8088    1.8258 Cl  0  0  0  0  0  0  0  0  0  0  0  0
  -84.5380   31.5144    0.6427 C   0  0  0  0  0  0  0  0  0  0  0  0
  -85.6485   31.8666   -0.0671 C   0  0  0  0  0  0  0  0  0  0  0  0
  -86.0497   33.5528   -0.4196 Cl  0  0  0  0  0  0  0  0  0  0  0  0
  -90.2518   28.0007   -1.1292 O   0  0  0  0  0  0  0  0  0  0  0  0
  -89.2529   27.2890    0.9622 C   0  0  0  0  0  0  0  0  0  0  0  0
  -89.2726   27.3431    2.3470 C   0  0  0  0  0  0  0  0  0  0  0  0
  -90.2024   28.0802    3.0622 C   0  0  0  0  0  0  0  0  0  0  0  0
  -91.1436   28.7855    2.3409 C   0  0  0  0  0  0  0  0  0  0  0  0
  -91.1428   28.7454    0.9633 C   0  0  0  0  0  0  0  0  0  0  0  0
  -90.1973   27.9958    0.2452 C   0  0  0  0  0  0  0  0  0  0  0  0
  -87.0775   26.2106    0.9650 C   0  0  0  0  0  0  0  0  0  0  0  0
  -88.2881   26.5305    0.2944 O   0  0  0  0  0  0  0  0  0  0  0  0
  -90.2117   28.1294    4.5498 C   0  0  0  0  0  0  0  0  0  0  0  0
  -90.2880   26.7527    5.0996 C   0  0  0  0  0  0  0  0  0  0  0  0
  -89.4388   26.2445    5.8579 O   0  0  0  0  0  0  0  0  0  0  0  0
  -91.4037   25.9884    4.7255 O   0  0  0  0  0  0  0  0  0  0  0  0
  -92.3241   26.3394    4.9397 H   0  0  0  0  0  0  0  0  0  0  0  0
 34 35  1  0  0  0
 35 28  1  0  0  0
 28 29  2  0  0  0
 29 30  1  0  0  0
 30 36  1  0  0  0
 36 37  1  0  0  0
 37 38  2  0  0  0
 37 39  1  0  0  0
 30 31  2  0  0  0
 31 32  1  0  0  0
 32 33  2  0  0  0
 33 27  1  0  0  0
 27  1  1  0  0  0
  1  2  2  0  0  0
  2  3  1  0  0  0
  3  4  2  0  0  0
  4  7  1  0  0  0
  7  8  2  0  0  0
  7  9  1  0  0  0
  9 11  1  0  0  0
 11 12  1  0  0  0
 11 13  1  0  0  0
  4  5  1  0  0  0
  5  6  2  0  0  0
  6 14  1  0  0  0
 14 16  1  0  0  0
 16 17  2  0  0  0
 16 18  2  0  0  0
 16 19  1  0  0  0
 19 20  2  0  0  0
 20 21  1  0  0  0
 21 22  2  0  0  0
 22 23  1  0  0  0
 22 24  1  0  0  0
 24 25  2  0  0  0
 25 26  1  0  0  0
 33 28  1  0  0  0
  6  1  1  0  0  0
 25 19  1  0  0  0
 39 40  1  0  0  0
  9 10  1  0  0  0
 14 15  1  0  0  0
M  END
> <minimizedAffinity>
-8.74162

> <CNNscore>
0.1615684628

> <CNNaffinity>
6.3872575760

> <CNN_VS>
1.0319794416

> <CNNaffinity_variance>
0.5839236379

$$$$
[H]OC(=O)C([H])([H])c1c([H])c([H])c(Oc2c([H])c([H])c(C(=O)N([H])C([H])(C([H])([H])[H])C([H])([H])[H])c([H])c2N([H])S(=O)(=O)c2c([H])c([H])c(Cl)c([H])c2Cl)c(OC([H])([H])[H])c1[H]


 40 42  0  0  0  0  0  0  0  0999 V2000
  -88.2344   27.2131   -1.0016 C   0  0  0  0  0  0  0  0  0  0  0  0
  -88.3340   27.1518   -2.3649 C   0  0  0  0  0  0  0  0  0  0  0  0
  -88.2485   28.2846   -3.1505 C   0  0  0  0  0  0  0  0  0  0  0  0
  -88.0592   29.5080   -2.5600 C   0  0  0  0  0  0  0  0  0  0  0  0
  -87.9608   29.5577   -1.1853 C   0  0  0  0  0  0  0  0  0  0  0  0
  -88.0403   28.4577   -0.3705 C   0  0  0  0  0  0  0  0  0  0  0  0
  -87.9580   30.7354   -3.3595 C   0  0  0  0  0  0  0  0  0  0  0  0
  -87.8117   30.5954   -4.6131 O   0  0  0  0  0  0  0  0  0  0  0  0
  -88.0202   32.0029   -2.7691 N   0  0  0  0  0  0  0  0  0  0  0  0
  -88.1408   32.1400   -1.7599 H   0  0  0  0  0  0  0  0  0  0  0  0
  -87.9136   33.1849   -3.6105 C   0  0  0  0  0  0  0  0  0  0  0  0
  -89.2791   33.8498   -3.5856 C   0  0  0  0  0  0  0  0  0  0  0  0
  -86.8366   34.0936   -3.1010 C   0  0  0  0  0  0  0  0  0  0  0  0
  -87.9545   28.4908    1.0479 N   0  0  0  0  0  0  0  0  0  0  0  0
  -88.8400   28.6301    1.6090 H   0  0  0  0  0  0  0  0  0  0  0  0
  -86.4310   28.3068    1.8094 S   0  0  0  0  0  0  0  0  0  0  0  0
  -86.5537   28.2735    3.3287 O   0  0  0  0  0  0  0  0  0  0  0  0
  -85.8431   26.9647    1.3560 O   0  0  0  0  0  0  0  0  0  0  0  0
  -85.3468   29.5789    1.3044 C   0  0  0  0  0  0  0  0  0  0  0  0
  -85.8149   30.6410    0.5856 C   0  0  0  0  0  0  0  0  0  0  0  0
  -84.8786   31.6090    0.1964 C   0  0  0  0  0  0  0  0  0  0  0  0
  -83.5484   31.5167    0.5099 C   0  0  0  0  0  0  0  0  0  0  0  0
  -82.4032   32.7338    0.0148 Cl  0  0  0  0  0  0  0  0  0  0  0  0
  -83.1332   30.4270    1.2339 C   0  0  0  0  0  0  0  0  0  0  0  0
  -83.9972   29.4529    1.6410 C   0  0  0  0  0  0  0  0  0  0  0  0
  -83.4657   28.0476    2.5742 Cl  0  0  0  0  0  0  0  0  0  0  0  0
  -88.3172   26.0809   -0.2153 O   0  0  0  0  0  0  0  0  0  0  0  0
  -90.2037   25.3972    1.1455 C   0  0  0  0  0  0  0  0  0  0  0  0
  -91.3157   24.5808    1.2792 C   0  0  0  0  0  0  0  0  0  0  0  0
  -91.7048   23.6680    0.3124 C   0  0  0  0  0  0  0  0  0  0  0  0
  -90.9339   23.5850   -0.8289 C   0  0  0  0  0  0  0  0  0  0  0  0
  -89.8236   24.3871   -0.9824 C   0  0  0  0  0  0  0  0  0  0  0  0
  -89.4352   25.3098    0.0021 C   0  0  0  0  0  0  0  0  0  0  0  0
  -89.2172   25.8193    3.3235 C   0  0  0  0  0  0  0  0  0  0  0  0
  -89.8614   26.3023    2.1534 O   0  0  0  0  0  0  0  0  0  0  0  0
  -92.9019   22.7973    0.4692 C   0  0  0  0  0  0  0  0  0  0  0  0
  -92.4847   21.3747    0.5427 C   0  0  0  0  0  0  0  0  0  0  0  0
  -92.0354   20.8200    1.5650 O   0  0  0  0  0  0  0  0  0  0  0  0
  -92.6143   20.6210   -0.6337 O   0  0  0  0  0  0  0  0  0  0  0  0
  -93.5252   20.5394   -1.0578 H   0  0  0  0  0  0  0  0  0  0  0  0
 34 35  1  0  0  0
 35 28  1  0  0  0
 28 29  2  0  0  0
 29 30  1  0  0  0
 30 36  1  0  0  0
 36 37  1  0  0  0
 37 38  2  0  0  0
 37 39  1  0  0  0
 30 31  2  0  0  0
 31 32  1  0  0  0
 32 33  2  0  0  0
 33 27  1  0  0  0
 27  1  1  0  0  0
  1  2  2  0  0  0
  2  3  1  0  0  0
  3  4  2  0  0  0
  4  7  1  0  0  0
  7  8  2  0  0  0
  7  9  1  0  0  0
  9 11  1  0  0  0
 11 12  1  0  0  0
 11 13  1  0  0  0
  4  5  1  0  0  0
  5  6  2  0  0  0
  6 14  1  0  0  0
 14 16  1  0  0  0
 16 17  2  0  0  0
 16 18  2  0  0  0
 16 19  1  0  0  0
 19 20  2  0  0  0
 20 21  1  0  0  0
 21 22  2  0  0  0
 22 23  1  0  0  0
 22 24  1  0  0  0
 24 25  2  0  0  0
 25 26  1  0  0  0
 33 28  1  0  0  0
  6  1  1  0  0  0
 25 19  1  0  0  0
 39 40  1  0  0  0
  9 10  1  0  0  0
 14 15  1  0  0  0
M  END
> <minimizedAffinity>
-7.86248

> <CNNscore>
0.1610144377

> <CNNaffinity>
6.8598365784

> <CNN_VS>
1.1045327187

> <CNNaffinity_variance>
0.2421403676

$$$$
[H]OC(=O)C([H])([H])c1c([H])c([H])c(Oc2c([H])c([H])c(C(=O)N([H])C([H])(C([H])([H])[H])C([H])([H])[H])c([H])c2N([H])S(=O)(=O)c2c([H])c([H])c(Cl)c([H])c2Cl)c(OC([H])([H])[H])c1[H]


 40 42  0  0  0  0  0  0  0  0999 V2000
  -87.5979   32.5799   -1.1086 C   0  0  0  0  0  0  0  0  0  0  0  0
  -86.4697   33.2396   -1.5137 C   0  0  0  0  0  0  0  0  0  0  0  0
  -86.5236   34.2809   -2.4195 C   0  0  0  0  0  0  0  0  0  0  0  0
  -87.7337   34.6724   -2.9331 C   0  0  0  0  0  0  0  0  0  0  0  0
  -88.8639   33.9999   -2.5180 C   0  0  0  0  0  0  0  0  0  0  0  0
  -88.8531   32.9624   -1.6217 C   0  0  0  0  0  0  0  0  0  0  0  0
  -87.8348   35.7777   -3.8944 C   0  0  0  0  0  0  0  0  0  0  0  0
  -88.9655   36.3455   -4.0018 O   0  0  0  0  0  0  0  0  0  0  0  0
  -86.7364   36.1887   -4.6582 N   0  0  0  0  0  0  0  0  0  0  0  0
  -85.8135   35.7471   -4.5860 H   0  0  0  0  0  0  0  0  0  0  0  0
  -86.8948   37.2896   -5.5959 C   0  0  0  0  0  0  0  0  0  0  0  0
  -85.6004   38.0827   -5.5441 C   0  0  0  0  0  0  0  0  0  0  0  0
  -87.1793   36.7675   -6.9714 C   0  0  0  0  0  0  0  0  0  0  0  0
  -90.0051   32.2491   -1.1923 N   0  0  0  0  0  0  0  0  0  0  0  0
  -90.5428   32.6060   -0.3545 H   0  0  0  0  0  0  0  0  0  0  0  0
  -90.4915   30.8386   -2.0343 S   0  0  0  0  0  0  0  0  0  0  0  0
  -91.8115   31.0408   -2.7698 O   0  0  0  0  0  0  0  0  0  0  0  0
  -89.4139   30.5262   -3.0802 O   0  0  0  0  0  0  0  0  0  0  0  0
  -90.5969   29.4863   -0.9349 C   0  0  0  0  0  0  0  0  0  0  0  0
  -90.2929   29.6446    0.3866 C   0  0  0  0  0  0  0  0  0  0  0  0
  -90.3781   28.5066    1.2006 C   0  0  0  0  0  0  0  0  0  0  0  0
  -90.7468   27.2793    0.7166 C   0  0  0  0  0  0  0  0  0  0  0  0
  -90.8460   25.8786    1.7491 Cl  0  0  0  0  0  0  0  0  0  0  0  0
  -91.0407   27.1780   -0.6204 C   0  0  0  0  0  0  0  0  0  0  0  0
  -90.9759   28.2497   -1.4619 C   0  0  0  0  0  0  0  0  0  0  0  0
  -91.3540   28.1227   -3.1851 Cl  0  0  0  0  0  0  0  0  0  0  0  0
  -87.5455   31.5404   -0.2011 O   0  0  0  0  0  0  0  0  0  0  0  0
  -86.0854   29.6153   -0.0006 C   0  0  0  0  0  0  0  0  0  0  0  0
  -84.9227   29.0782    0.5293 C   0  0  0  0  0  0  0  0  0  0  0  0
  -84.0580   29.7963    1.3392 C   0  0  0  0  0  0  0  0  0  0  0  0
  -84.3903   31.1061    1.6180 C   0  0  0  0  0  0  0  0  0  0  0  0
  -85.5419   31.6602    1.1020 C   0  0  0  0  0  0  0  0  0  0  0  0
  -86.4137   30.9260    0.2821 C   0  0  0  0  0  0  0  0  0  0  0  0
  -87.1829   27.4965   -0.4490 C   0  0  0  0  0  0  0  0  0  0  0  0
  -86.9181   28.8433   -0.8145 O   0  0  0  0  0  0  0  0  0  0  0  0
  -82.8124   29.2066    1.9014 C   0  0  0  0  0  0  0  0  0  0  0  0
  -83.1353   27.9684    2.6536 C   0  0  0  0  0  0  0  0  0  0  0  0
  -84.2393   27.7269    3.1804 O   0  0  0  0  0  0  0  0  0  0  0  0
  -82.1100   27.0172    2.7667 O   0  0  0  0  0  0  0  0  0  0  0  0
  -81.7068   26.6384    1.9239 H   0  0  0  0  0  0  0  0  0  0  0  0
 34 35  1  0  0  0
 35 28  1  0  0  0
 28 29  2  0  0  0
 29 30  1  0  0  0
 30 36  1  0  0  0
 36 37  1  0  0  0
 37 38  2  0  0  0
 37 39  1  0  0  0
 30 31  2  0  0  0
 31 32  1  0  0  0
 32 33  2  0  0  0
 33 27  1  0  0  0
 27  1  1  0  0  0
  1  2  2  0  0  0
  2  3  1  0  0  0
  3  4  2  0  0  0
  4  7  1  0  0  0
  7  8  2  0  0  0
  7  9  1  0  0  0
  9 11  1  0  0  0
 11 12  1  0  0  0
 11 13  1  0  0  0
  4  5  1  0  0  0
  5  6  2  0  0  0
  6 14  1  0  0  0
 14 16  1  0  0  0
 16 17  2  0  0  0
 16 18  2  0  0  0
 16 19  1  0  0  0
 19 20  2  0  0  0
 20 21  1  0  0  0
 21 22  2  0  0  0
 22 23  1  0  0  0
 22 24  1  0  0  0
 24 25  2  0  0  0
 25 26  1  0  0  0
 33 28  1  0  0  0
  6  1  1  0  0  0
 25 19  1  0  0  0
 39 40  1  0  0  0
  9 10  1  0  0  0
 14 15  1  0  0  0
M  END
> <minimizedAffinity>
-9.37209

> <CNNscore>
0.1526486576

> <CNNaffinity>
6.5975136757

> <CNN_VS>
1.0071016550

> <CNNaffinity_variance>
0.4761040807

$$$$
[H]OC(=O)C([H])([H])c1c([H])c([H])c(Oc2c([H])c([H])c(C(=O)N([H])C([H])(C([H])([H])[H])C([H])([H])[H])c([H])c2N([H])S(=O)(=O)c2c([H])c([H])c(Cl)c([H])c2Cl)c(OC([H])([H])[H])c1[H]


 40 42  0  0  0  0  0  0  0  0999 V2000
  -88.4775   27.2553   -1.3971 C   0  0  0  0  0  0  0  0  0  0  0  0
  -89.7602   27.0441   -1.8239 C   0  0  0  0  0  0  0  0  0  0  0  0
  -90.5566   26.0606   -1.2705 C   0  0  0  0  0  0  0  0  0  0  0  0
  -90.0595   25.2689   -0.2668 C   0  0  0  0  0  0  0  0  0  0  0  0
  -88.7653   25.4906    0.1549 C   0  0  0  0  0  0  0  0  0  0  0  0
  -87.9430   26.4553   -0.3678 C   0  0  0  0  0  0  0  0  0  0  0  0
  -90.8749   24.2159    0.3513 C   0  0  0  0  0  0  0  0  0  0  0  0
  -90.4425   23.7146    1.4350 O   0  0  0  0  0  0  0  0  0  0  0  0
  -92.0745   23.7830   -0.2254 N   0  0  0  0  0  0  0  0  0  0  0  0
  -92.4443   24.1752   -1.0979 H   0  0  0  0  0  0  0  0  0  0  0  0
  -92.8412   22.7353    0.4310 C   0  0  0  0  0  0  0  0  0  0  0  0
  -94.2889   23.1949    0.4173 C   0  0  0  0  0  0  0  0  0  0  0  0
  -92.6593   21.4299   -0.2819 C   0  0  0  0  0  0  0  0  0  0  0  0
  -86.6031   26.6897    0.0444 N   0  0  0  0  0  0  0  0  0  0  0  0
  -85.8135   26.3310   -0.5607 H   0  0  0  0  0  0  0  0  0  0  0  0
  -86.3007   27.5401    1.5006 S   0  0  0  0  0  0  0  0  0  0  0  0
  -87.5898   28.0165    2.1605 O   0  0  0  0  0  0  0  0  0  0  0  0
  -85.6069   26.5734    2.4685 O   0  0  0  0  0  0  0  0  0  0  0  0
  -85.2256   28.8831    1.2024 C   0  0  0  0  0  0  0  0  0  0  0  0
  -85.6013   29.8974    0.3694 C   0  0  0  0  0  0  0  0  0  0  0  0
  -84.6737   30.9277    0.1615 C   0  0  0  0  0  0  0  0  0  0  0  0
  -83.4393   30.9397    0.7551 C   0  0  0  0  0  0  0  0  0  0  0  0
  -82.3029   32.2327    0.4813 Cl  0  0  0  0  0  0  0  0  0  0  0  0
  -83.1142   29.8940    1.5827 C   0  0  0  0  0  0  0  0  0  0  0  0
  -83.9749   28.8634    1.8237 C   0  0  0  0  0  0  0  0  0  0  0  0
  -83.5594   27.5145    2.8896 Cl  0  0  0  0  0  0  0  0  0  0  0  0
  -87.6813   28.2400   -1.9478 O   0  0  0  0  0  0  0  0  0  0  0  0
  -88.6973   30.4073   -1.5630 C   0  0  0  0  0  0  0  0  0  0  0  0
  -89.0736   31.6336   -2.0881 C   0  0  0  0  0  0  0  0  0  0  0  0
  -88.8676   31.9849   -3.4123 C   0  0  0  0  0  0  0  0  0  0  0  0
  -88.2577   31.0543   -4.2282 C   0  0  0  0  0  0  0  0  0  0  0  0
  -87.8759   29.8285   -3.7270 C   0  0  0  0  0  0  0  0  0  0  0  0
  -88.0882   29.4795   -2.3837 C   0  0  0  0  0  0  0  0  0  0  0  0
  -90.2666   29.9992    0.2443 C   0  0  0  0  0  0  0  0  0  0  0  0
  -88.9279   30.1097   -0.2175 O   0  0  0  0  0  0  0  0  0  0  0  0
  -89.2768   33.3059   -3.9629 C   0  0  0  0  0  0  0  0  0  0  0  0
  -90.4706   33.1431   -4.8297 C   0  0  0  0  0  0  0  0  0  0  0  0
  -91.6252   32.9260   -4.4122 O   0  0  0  0  0  0  0  0  0  0  0  0
  -90.2603   33.2449   -6.2134 O   0  0  0  0  0  0  0  0  0  0  0  0
  -89.8622   34.0951   -6.5807 H   0  0  0  0  0  0  0  0  0  0  0  0
 34 35  1  0  0  0
 35 28  1  0  0  0
 28 29  2  0  0  0
 29 30  1  0  0  0
 30 36  1  0  0  0
 36 37  1  0  0  0
 37 38  2  0  0  0
 37 39  1  0  0  0
 30 31  2  0  0  0
 31 32  1  0  0  0
 32 33  2  0  0  0
 33 27  1  0  0  0
 27  1  1  0  0  0
  1  2  2  0  0  0
  2  3  1  0  0  0
  3  4  2  0  0  0
  4  7  1  0  0  0
  7  8  2  0  0  0
  7  9  1  0  0  0
  9 11  1  0  0  0
 11 12  1  0  0  0
 11 13  1  0  0  0
  4  5  1  0  0  0
  5  6  2  0  0  0
  6 14  1  0  0  0
 14 16  1  0  0  0
 16 17  2  0  0  0
 16 18  2  0  0  0
 16 19  1  0  0  0
 19 20  2  0  0  0
 20 21  1  0  0  0
 21 22  2  0  0  0
 22 23  1  0  0  0
 22 24  1  0  0  0
 24 25  2  0  0  0
 25 26  1  0  0  0
 33 28  1  0  0  0
  6  1  1  0  0  0
 25 19  1  0  0  0
 39 40  1  0  0  0
  9 10  1  0  0  0
 14 15  1  0  0  0
M  END
> <minimizedAffinity>
-7.99913

> <CNNscore>
0.0832599699

> <CNNaffinity>
6.3671317101

> <CNN_VS>
0.5301271677

> <CNNaffinity_variance>
0.4465966225

$$$$
[H]OC(=O)C([H])([H])c1c([H])c([H])c(Oc2c([H])c([H])c(C(=O)N([H])C([H])(C([H])([H])[H])C([H])([H])[H])c([H])c2N([H])S(=O)(=O)c2c([H])c([H])c(Cl)c([H])c2Cl)c(OC([H])([H])[H])c1[H]


 40 42  0  0  0  0  0  0  0  0999 V2000
  -90.1905   27.4911    0.4853 C   0  0  0  0  0  0  0  0  0  0  0  0
  -91.3158   26.7295    0.6462 C   0  0  0  0  0  0  0  0  0  0  0  0
  -91.2685   25.3494    0.6160 C   0  0  0  0  0  0  0  0  0  0  0  0
  -90.0684   24.7150    0.4200 C   0  0  0  0  0  0  0  0  0  0  0  0
  -88.9411   25.4929    0.2586 C   0  0  0  0  0  0  0  0  0  0  0  0
  -88.9455   26.8638    0.2821 C   0  0  0  0  0  0  0  0  0  0  0  0
  -89.9744   23.2501    0.3862 C   0  0  0  0  0  0  0  0  0  0  0  0
  -89.6403   22.7201   -0.7184 O   0  0  0  0  0  0  0  0  0  0  0  0
  -90.2400   22.4714    1.5184 N   0  0  0  0  0  0  0  0  0  0  0  0
  -90.5084   22.8775    2.4211 H   0  0  0  0  0  0  0  0  0  0  0  0
  -90.1318   21.0235    1.4265 C   0  0  0  0  0  0  0  0  0  0  0  0
  -89.6232   20.5480    2.7764 C   0  0  0  0  0  0  0  0  0  0  0  0
  -91.4600   20.4211    1.0824 C   0  0  0  0  0  0  0  0  0  0  0  0
  -87.7969   27.6820    0.1044 N   0  0  0  0  0  0  0  0  0  0  0  0
  -87.6579   28.1712   -0.8228 H   0  0  0  0  0  0  0  0  0  0  0  0
  -86.6728   27.8547    1.3856 S   0  0  0  0  0  0  0  0  0  0  0  0
  -87.3654   28.0816    2.7247 O   0  0  0  0  0  0  0  0  0  0  0  0
  -85.8756   26.5480    1.4845 O   0  0  0  0  0  0  0  0  0  0  0  0
  -85.5574   29.1524    1.0384 C   0  0  0  0  0  0  0  0  0  0  0  0
  -85.9035   30.1474    0.1701 C   0  0  0  0  0  0  0  0  0  0  0  0
  -84.9451   31.1405   -0.0754 C   0  0  0  0  0  0  0  0  0  0  0  0
  -83.7096   31.1355    0.5159 C   0  0  0  0  0  0  0  0  0  0  0  0
  -82.5345   32.3822    0.1949 Cl  0  0  0  0  0  0  0  0  0  0  0  0
  -83.4151   30.1105    1.3800 C   0  0  0  0  0  0  0  0  0  0  0  0
  -84.3066   29.1162    1.6586 C   0  0  0  0  0  0  0  0  0  0  0  0
  -83.9305   27.7940    2.7716 Cl  0  0  0  0  0  0  0  0  0  0  0  0
  -90.2362   28.8709    0.5179 O   0  0  0  0  0  0  0  0  0  0  0  0
  -91.0561   29.5839   -1.6494 C   0  0  0  0  0  0  0  0  0  0  0  0
  -90.9657   30.4889   -2.6953 C   0  0  0  0  0  0  0  0  0  0  0  0
  -90.0640   31.5406   -2.7100 C   0  0  0  0  0  0  0  0  0  0  0  0
  -89.2264   31.6736   -1.6217 C   0  0  0  0  0  0  0  0  0  0  0  0
  -89.2989   30.7847   -0.5710 C   0  0  0  0  0  0  0  0  0  0  0  0
  -90.2152   29.7209   -0.5633 C   0  0  0  0  0  0  0  0  0  0  0  0
  -93.2491   28.7711   -2.3016 C   0  0  0  0  0  0  0  0  0  0  0  0
  -91.9882   28.5438   -1.6884 O   0  0  0  0  0  0  0  0  0  0  0  0
  -89.9779   32.5054   -3.8402 C   0  0  0  0  0  0  0  0  0  0  0  0
  -88.7478   32.2484   -4.6302 C   0  0  0  0  0  0  0  0  0  0  0  0
  -87.7220   32.9563   -4.5946 O   0  0  0  0  0  0  0  0  0  0  0  0
  -88.7641   31.1238   -5.4692 O   0  0  0  0  0  0  0  0  0  0  0  0
  -88.9306   30.2176   -5.0600 H   0  0  0  0  0  0  0  0  0  0  0  0
 34 35  1  0  0  0
 35 28  1  0  0  0
 28 29  2  0  0  0
 29 30  1  0  0  0
 30 36  1  0  0  0
 36 37  1  0  0  0
 37 38  2  0  0  0
 37 39  1  0  0  0
 30 31  2  0  0  0
 31 32  1  0  0  0
 32 33  2  0  0  0
 33 27  1  0  0  0
 27  1  1  0  0  0
  1  2  2  0  0  0
  2  3  1  0  0  0
  3  4  2  0  0  0
  4  7  1  0  0  0
  7  8  2  0  0  0
  7  9  1  0  0  0
  9 11  1  0  0  0
 11 12  1  0  0  0
 11 13  1  0  0  0
  4  5  1  0  0  0
  5  6  2  0  0  0
  6 14  1  0  0  0
 14 16  1  0  0  0
 16 17  2  0  0  0
 16 18  2  0  0  0
 16 19  1  0  0  0
 19 20  2  0  0  0
 20 21  1  0  0  0
 21 22  2  0  0  0
 22 23  1  0  0  0
 22 24  1  0  0  0
 24 25  2  0  0  0
 25 26  1  0  0  0
 33 28  1  0  0  0
  6  1  1  0  0  0
 25 19  1  0  0  0
 39 40  1  0  0  0
  9 10  1  0  0  0
 14 15  1  0  0  0
M  END
> <minimizedAffinity>
-8.45162

> <CNNscore>
0.0830474794

> <CNNaffinity>
6.4661788940

> <CNN_VS>
0.5369998813

> <CNNaffinity_variance>
0.4003995955

$$$$
[H]OC(=O)C([H])([H])c1c([H])c([H])c(Oc2c([H])c([H])c(C(=O)N([H])C([H])(C([H])([H])[H])C([H])([H])[H])c([H])c2N([H])S(=O)(=O)c2c([H])c([H])c(Cl)c([H])c2Cl)c(OC([H])([H])[H])c1[H]


 40 42  0  0  0  0  0  0  0  0999 V2000
  -91.2811   30.1338   -2.6546 C   0  0  0  0  0  0  0  0  0  0  0  0
  -92.5333   29.9925   -3.1877 C   0  0  0  0  0  0  0  0  0  0  0  0
  -92.9622   30.7662   -4.2485 C   0  0  0  0  0  0  0  0  0  0  0  0
  -92.1199   31.7038   -4.7895 C   0  0  0  0  0  0  0  0  0  0  0  0
  -90.8605   31.8377   -4.2438 C   0  0  0  0  0  0  0  0  0  0  0  0
  -90.3969   31.0901   -3.1920 C   0  0  0  0  0  0  0  0  0  0  0  0
  -92.5353   32.5429   -5.9205 C   0  0  0  0  0  0  0  0  0  0  0  0
  -93.7583   32.4894   -6.2582 O   0  0  0  0  0  0  0  0  0  0  0  0
  -91.6269   33.3654   -6.5966 N   0  0  0  0  0  0  0  0  0  0  0  0
  -90.6360   33.4269   -6.3397 H   0  0  0  0  0  0  0  0  0  0  0  0
  -92.0946   34.1751   -7.7111 C   0  0  0  0  0  0  0  0  0  0  0  0
  -92.2633   35.5850   -7.1717 C   0  0  0  0  0  0  0  0  0  0  0  0
  -91.1153   34.1203   -8.8440 C   0  0  0  0  0  0  0  0  0  0  0  0
  -89.1079   31.2229   -2.6080 N   0  0  0  0  0  0  0  0  0  0  0  0
  -88.3746   30.4907   -2.8192 H   0  0  0  0  0  0  0  0  0  0  0  0
  -88.7748   32.5545   -1.5829 S   0  0  0  0  0  0  0  0  0  0  0  0
  -89.0368   33.8868   -2.2763 O   0  0  0  0  0  0  0  0  0  0  0  0
  -89.7167   32.4598   -0.3760 O   0  0  0  0  0  0  0  0  0  0  0  0
  -87.1301   32.4722   -1.0027 C   0  0  0  0  0  0  0  0  0  0  0  0
  -86.2291   33.4411   -1.3394 C   0  0  0  0  0  0  0  0  0  0  0  0
  -84.9223   33.2919   -0.8547 C   0  0  0  0  0  0  0  0  0  0  0  0
  -84.5407   32.2310   -0.0768 C   0  0  0  0  0  0  0  0  0  0  0  0
  -82.9092   32.0677    0.5145 Cl  0  0  0  0  0  0  0  0  0  0  0  0
  -85.4877   31.2861    0.2303 C   0  0  0  0  0  0  0  0  0  0  0  0
  -86.7751   31.3771   -0.2119 C   0  0  0  0  0  0  0  0  0  0  0  0
  -87.9980   30.1615    0.1820 Cl  0  0  0  0  0  0  0  0  0  0  0  0
  -90.8504   29.3590   -1.5958 O   0  0  0  0  0  0  0  0  0  0  0  0
  -89.6375   27.2988   -1.9985 C   0  0  0  0  0  0  0  0  0  0  0  0
  -89.6264   25.9145   -1.9302 C   0  0  0  0  0  0  0  0  0  0  0  0
  -90.6899   25.1725   -1.4428 C   0  0  0  0  0  0  0  0  0  0  0  0
  -91.8020   25.8654   -1.0108 C   0  0  0  0  0  0  0  0  0  0  0  0
  -91.8347   27.2420   -1.0703 C   0  0  0  0  0  0  0  0  0  0  0  0
  -90.7529   27.9873   -1.5658 C   0  0  0  0  0  0  0  0  0  0  0  0
  -87.2615   27.7884   -1.8986 C   0  0  0  0  0  0  0  0  0  0  0  0
  -88.5331   27.9944   -2.4970 O   0  0  0  0  0  0  0  0  0  0  0  0
  -90.6643   23.6857   -1.3750 C   0  0  0  0  0  0  0  0  0  0  0  0
  -89.9436   23.2489   -0.1532 C   0  0  0  0  0  0  0  0  0  0  0  0
  -90.2636   23.5653    1.0096 O   0  0  0  0  0  0  0  0  0  0  0  0
  -88.8263   22.4219   -0.3453 O   0  0  0  0  0  0  0  0  0  0  0  0
  -88.9509   21.5451   -0.8270 H   0  0  0  0  0  0  0  0  0  0  0  0
 34 35  1  0  0  0
 35 28  1  0  0  0
 28 29  2  0  0  0
 29 30  1  0  0  0
 30 36  1  0  0  0
 36 37  1  0  0  0
 37 38  2  0  0  0
 37 39  1  0  0  0
 30 31  2  0  0  0
 31 32  1  0  0  0
 32 33  2  0  0  0
 33 27  1  0  0  0
 27  1  1  0  0  0
  1  2  2  0  0  0
  2  3  1  0  0  0
  3  4  2  0  0  0
  4  7  1  0  0  0
  7  8  2  0  0  0
  7  9  1  0  0  0
  9 11  1  0  0  0
 11 12  1  0  0  0
 11 13  1  0  0  0
  4  5  1  0  0  0
  5  6  2  0  0  0
  6 14  1  0  0  0
 14 16  1  0  0  0
 16 17  2  0  0  0
 16 18  2  0  0  0
 16 19  1  0  0  0
 19 20  2  0  0  0
 20 21  1  0  0  0
 21 22  2  0  0  0
 22 23  1  0  0  0
 22 24  1  0  0  0
 24 25  2  0  0  0
 25 26  1  0  0  0
 33 28  1  0  0  0
  6  1  1  0  0  0
 25 19  1  0  0  0
 39 40  1  0  0  0
  9 10  1  0  0  0
 14 15  1  0  0  0
M  END
> <minimizedAffinity>
-7.67664

> <CNNscore>
0.0810114220

> <CNNaffinity>
6.0297789574

> <CNN_VS>
0.4884809554

> <CNNaffinity_variance>
0.4658493102

$$$$
[H]OC(=O)C([H])([H])c1c([H])c([H])c(Oc2c([H])c([H])c(C(=O)N([H])C([H])(C([H])([H])[H])C([H])([H])[H])c([H])c2N([H])S(=O)(=O)c2c([H])c([H])c(Cl)c([H])c2Cl)c(OC([H])([H])[H])c1[H]


 40 42  0  0  0  0  0  0  0  0999 V2000
  -88.4118   27.6419   -1.8314 C   0  0  0  0  0  0  0  0  0  0  0  0
  -88.1502   26.9085   -0.7062 C   0  0  0  0  0  0  0  0  0  0  0  0
  -87.2513   27.3410    0.2492 C   0  0  0  0  0  0  0  0  0  0  0  0
  -86.5979   28.5344    0.0763 C   0  0  0  0  0  0  0  0  0  0  0  0
  -86.8692   29.2647   -1.0618 C   0  0  0  0  0  0  0  0  0  0  0  0
  -87.7535   28.8711   -2.0330 C   0  0  0  0  0  0  0  0  0  0  0  0
  -85.6387   29.0320    1.0703 C   0  0  0  0  0  0  0  0  0  0  0  0
  -85.5939   28.4215    2.1829 O   0  0  0  0  0  0  0  0  0  0  0  0
  -84.8103   30.1287    0.8059 N   0  0  0  0  0  0  0  0  0  0  0  0
  -84.8272   30.6350   -0.0859 H   0  0  0  0  0  0  0  0  0  0  0  0
  -83.8789   30.5788    1.8288 C   0  0  0  0  0  0  0  0  0  0  0  0
  -82.6918   31.1741    1.0915 C   0  0  0  0  0  0  0  0  0  0  0  0
  -84.5372   31.5767    2.7323 C   0  0  0  0  0  0  0  0  0  0  0  0
  -88.0359   29.6033   -3.2180 N   0  0  0  0  0  0  0  0  0  0  0  0
  -87.4400   29.4351   -4.0754 H   0  0  0  0  0  0  0  0  0  0  0  0
  -89.3239   30.7328   -3.2298 S   0  0  0  0  0  0  0  0  0  0  0  0
  -90.4079   30.3504   -4.2314 O   0  0  0  0  0  0  0  0  0  0  0  0
  -89.9551   30.7336   -1.8319 O   0  0  0  0  0  0  0  0  0  0  0  0
  -88.7165   32.3365   -3.5581 C   0  0  0  0  0  0  0  0  0  0  0  0
  -88.8029   32.8646   -4.8141 C   0  0  0  0  0  0  0  0  0  0  0  0
  -88.2712   34.1477   -5.0036 C   0  0  0  0  0  0  0  0  0  0  0  0
  -87.6856   34.8605   -3.9910 C   0  0  0  0  0  0  0  0  0  0  0  0
  -87.0318   36.4551   -4.2513 Cl  0  0  0  0  0  0  0  0  0  0  0  0
  -87.6256   34.2804   -2.7484 C   0  0  0  0  0  0  0  0  0  0  0  0
  -88.1258   33.0352   -2.5028 C   0  0  0  0  0  0  0  0  0  0  0  0
  -88.0502   32.2847   -0.9030 Cl  0  0  0  0  0  0  0  0  0  0  0  0
  -89.3122   27.2118   -2.7860 O   0  0  0  0  0  0  0  0  0  0  0  0
  -90.8347   25.4009   -2.2561 C   0  0  0  0  0  0  0  0  0  0  0  0
  -92.1432   24.9957   -2.0449 C   0  0  0  0  0  0  0  0  0  0  0  0
  -93.2245   25.8581   -2.1244 C   0  0  0  0  0  0  0  0  0  0  0  0
  -92.9626   27.1778   -2.4298 C   0  0  0  0  0  0  0  0  0  0  0  0
  -91.6690   27.6023   -2.6442 C   0  0  0  0  0  0  0  0  0  0  0  0
  -90.5780   26.7223   -2.5621 C   0  0  0  0  0  0  0  0  0  0  0  0
  -89.9530   23.3228   -1.3620 C   0  0  0  0  0  0  0  0  0  0  0  0
  -89.7831   24.4861   -2.1592 O   0  0  0  0  0  0  0  0  0  0  0  0
  -94.6250   25.4090   -1.8949 C   0  0  0  0  0  0  0  0  0  0  0  0
  -95.0264   24.4482   -2.9527 C   0  0  0  0  0  0  0  0  0  0  0  0
  -95.1985   24.7450   -4.1513 O   0  0  0  0  0  0  0  0  0  0  0  0
  -95.2199   23.1176   -2.5514 O   0  0  0  0  0  0  0  0  0  0  0  0
  -94.4535   22.6271   -2.1175 H   0  0  0  0  0  0  0  0  0  0  0  0
 34 35  1  0  0  0
 35 28  1  0  0  0
 28 29  2  0  0  0
 29 30  1  0  0  0
 30 36  1  0  0  0
 36 37  1  0  0  0
 37 38  2  0  0  0
 37 39  1  0  0  0
 30 31  2  0  0  0
 31 32  1  0  0  0
 32 33  2  0  0  0
 33 27  1  0  0  0
 27  1  1  0  0  0
  1  2  2  0  0  0
  2  3  1  0  0  0
  3  4  2  0  0  0
  4  7  1  0  0  0
  7  8  2  0  0  0
  7  9  1  0  0  0
  9 11  1  0  0  0
 11 12  1  0  0  0
 11 13  1  0  0  0
  4  5  1  0  0  0
  5  6  2  0  0  0
  6 14  1  0  0  0
 14 16  1  0  0  0
 16 17  2  0  0  0
 16 18  2  0  0  0
 16 19  1  0  0  0
 19 20  2  0  0  0
 20 21  1  0  0  0
 21 22  2  0  0  0
 22 23  1  0  0  0
 22 24  1  0  0  0
 24 25  2  0  0  0
 25 26  1  0  0  0
 33 28  1  0  0  0
  6  1  1  0  0  0
 25 19  1  0  0  0
 39 40  1  0  0  0
  9 10  1  0  0  0
 14 15  1  0  0  0
M  END
> <minimizedAffinity>
-7.72530

> <CNNscore>
0.0455750301

> <CNNaffinity>
6.1943717003

> <CNN_VS>
0.2823086679

> <CNNaffinity_variance>
0.5652121902

$$$$
[H]OC(=O)C([H])([H])c1c([H])c([H])c(Oc2c([H])c([H])c(C(=O)N([H])C([H])(C([H])([H])[H])C([H])([H])[H])c([H])c2N([H])S(=O)(=O)c2c([H])c([H])c(Cl)c([H])c2Cl)c(OC([H])([H])[H])c1[H]


 40 42  0  0  0  0  0  0  0  0999 V2000
  -90.0694   28.3977   -1.6645 C   0  0  0  0  0  0  0  0  0  0  0  0
  -90.8562   27.7224   -2.5573 C   0  0  0  0  0  0  0  0  0  0  0  0
  -91.8344   28.3633   -3.2924 C   0  0  0  0  0  0  0  0  0  0  0  0
  -92.0314   29.7111   -3.1315 C   0  0  0  0  0  0  0  0  0  0  0  0
  -91.2328   30.3811   -2.2285 C   0  0  0  0  0  0  0  0  0  0  0  0
  -90.2520   29.7826   -1.4804 C   0  0  0  0  0  0  0  0  0  0  0  0
  -93.0570   30.4307   -3.8970 C   0  0  0  0  0  0  0  0  0  0  0  0
  -94.2253   29.9329   -3.9037 O   0  0  0  0  0  0  0  0  0  0  0  0
  -92.7631   31.6116   -4.5881 N   0  0  0  0  0  0  0  0  0  0  0  0
  -91.8282   32.0333   -4.5944 H   0  0  0  0  0  0  0  0  0  0  0  0
  -93.8191   32.2821   -5.3310 C   0  0  0  0  0  0  0  0  0  0  0  0
  -94.2111   33.4984   -4.5099 C   0  0  0  0  0  0  0  0  0  0  0  0
  -93.3375   32.6589   -6.6990 C   0  0  0  0  0  0  0  0  0  0  0  0
  -89.4286   30.4536   -0.5359 N   0  0  0  0  0  0  0  0  0  0  0  0
  -89.6390   30.3415    0.4944 H   0  0  0  0  0  0  0  0  0  0  0  0
  -88.1257   31.4216   -1.0839 S   0  0  0  0  0  0  0  0  0  0  0  0
  -87.9840   31.3803   -2.6014 O   0  0  0  0  0  0  0  0  0  0  0  0
  -88.4204   32.8713   -0.6788 O   0  0  0  0  0  0  0  0  0  0  0  0
  -86.6404   30.9273   -0.3105 C   0  0  0  0  0  0  0  0  0  0  0  0
  -86.5284   29.6826    0.2392 C   0  0  0  0  0  0  0  0  0  0  0  0
  -85.3130   29.3689    0.8633 C   0  0  0  0  0  0  0  0  0  0  0  0
  -84.2695   30.2535    0.9327 C   0  0  0  0  0  0  0  0  0  0  0  0
  -82.7673   29.8399    1.7140 Cl  0  0  0  0  0  0  0  0  0  0  0  0
  -84.4377   31.4912    0.3635 C   0  0  0  0  0  0  0  0  0  0  0  0
  -85.5968   31.8540   -0.2577 C   0  0  0  0  0  0  0  0  0  0  0  0
  -85.8169   33.4478   -0.9922 Cl  0  0  0  0  0  0  0  0  0  0  0  0
  -89.0895   27.7585   -0.9310 O   0  0  0  0  0  0  0  0  0  0  0  0
  -89.5098   25.6680    0.2227 C   0  0  0  0  0  0  0  0  0  0  0  0
  -89.6766   25.0114    1.4318 C   0  0  0  0  0  0  0  0  0  0  0  0
  -89.6122   25.6544    2.6572 C   0  0  0  0  0  0  0  0  0  0  0  0
  -89.3698   27.0126    2.6492 C   0  0  0  0  0  0  0  0  0  0  0  0
  -89.2014   27.6857    1.4583 C   0  0  0  0  0  0  0  0  0  0  0  0
  -89.2683   27.0272    0.2201 C   0  0  0  0  0  0  0  0  0  0  0  0
  -89.9055   23.5831   -0.9569 C   0  0  0  0  0  0  0  0  0  0  0  0
  -89.5822   24.9659   -0.9830 O   0  0  0  0  0  0  0  0  0  0  0  0
  -89.7931   24.9363    3.9485 C   0  0  0  0  0  0  0  0  0  0  0  0
  -90.5213   23.6632    3.7200 C   0  0  0  0  0  0  0  0  0  0  0  0
  -91.7584   23.5664    3.5989 O   0  0  0  0  0  0  0  0  0  0  0  0
  -89.7411   22.4998    3.6380 O   0  0  0  0  0  0  0  0  0  0  0  0
  -89.0232   22.4478    2.9321 H   0  0  0  0  0  0  0  0  0  0  0  0
 34 35  1  0  0  0
 35 28  1  0  0  0
 28 29  2  0  0  0
 29 30  1  0  0  0
 30 36  1  0  0  0
 36 37  1  0  0  0
 37 38  2  0  0  0
 37 39  1  0  0  0
 30 31  2  0  0  0
 31 32  1  0  0  0
 32 33  2  0  0  0
 33 27  1  0  0  0
 27  1  1  0  0  0
  1  2  2  0  0  0
  2  3  1  0  0  0
  3  4  2  0  0  0
  4  7  1  0  0  0
  7  8  2  0  0  0
  7  9  1  0  0  0
  9 11  1  0  0  0
 11 12  1  0  0  0
 11 13  1  0  0  0
  4  5  1  0  0  0
  5  6  2  0  0  0
  6 14  1  0  0  0
 14 16  1  0  0  0
 16 17  2  0  0  0
 16 18  2  0  0  0
 16 19  1  0  0  0
 19 20  2  0  0  0
 20 21  1  0  0  0
 21 22  2  0  0  0
 22 23  1  0  0  0
 22 24  1  0  0  0
 24 25  2  0  0  0
 25 26  1  0  0  0
 33 28  1  0  0  0
  6  1  1  0  0  0
 25 19  1  0  0  0
 39 40  1  0  0  0
  9 10  1  0  0  0
 14 15  1  0  0  0
M  END
> <minimizedAffinity>
-8.18066

> <CNNscore>
0.0371495672

> <CNNaffinity>
6.0936326981

> <CNN_VS>
0.2263758183

> <CNNaffinity_variance>
0.5211110711

$$$$
[H]c1c([H])c([H])c(N([H])c2nc3c([H])nc(N([H])c4c([H])c([H])c(OC([H])([H])[H])c([H])c4[H])nc3n2C([H])(C([H])([H])[H])C([H])([H])[H])c(F)c1[H]


 31 34  0  0  0  0  0  0  0  0999 V2000
  -86.4039   33.2823   -2.2879 C   0  0  0  0  0  0  0  0  0  0  0  0
  -85.5979   33.2541   -1.2271 N   0  0  0  0  0  0  0  0  0  0  0  0
  -85.6064   32.3417   -0.2570 C   0  0  0  0  0  0  0  0  0  0  0  0
  -86.5282   31.3169   -0.3336 C   0  0  0  0  0  0  0  0  0  0  0  0
  -86.8207   30.2588    0.4301 N   0  0  0  0  0  0  0  0  0  0  0  0
  -87.8308   29.5830   -0.1349 C   0  0  0  0  0  0  0  0  0  0  0  0
  -88.2035   30.2100   -1.2856 N   0  0  0  0  0  0  0  0  0  0  0  0
  -87.3901   31.2857   -1.4021 C   0  0  0  0  0  0  0  0  0  0  0  0
  -87.3101   32.2443   -2.3305 N   0  0  0  0  0  0  0  0  0  0  0  0
  -89.2540   29.8265   -2.2164 C   0  0  0  0  0  0  0  0  0  0  0  0
  -90.6314   30.1756   -1.6869 C   0  0  0  0  0  0  0  0  0  0  0  0
  -89.1497   28.3919   -2.6372 C   0  0  0  0  0  0  0  0  0  0  0  0
  -86.3947   34.2382   -3.3043 N   0  0  0  0  0  0  0  0  0  0  0  0
  -85.4494   34.4909   -3.7289 H   0  0  0  0  0  0  0  0  0  0  0  0
  -89.7973   36.0866   -5.0171 C   0  0  0  0  0  0  0  0  0  0  0  0
  -89.2714   36.5433   -3.8335 C   0  0  0  0  0  0  0  0  0  0  0  0
  -88.1490   35.9594   -3.2522 C   0  0  0  0  0  0  0  0  0  0  0  0
  -87.5125   34.9053   -3.8229 C   0  0  0  0  0  0  0  0  0  0  0  0
  -88.0686   34.4445   -5.0478 C   0  0  0  0  0  0  0  0  0  0  0  0
  -89.1588   35.0229   -5.5993 C   0  0  0  0  0  0  0  0  0  0  0  0
  -90.7706   37.4460   -6.7557 C   0  0  0  0  0  0  0  0  0  0  0  0
  -90.9156   36.6782   -5.5843 O   0  0  0  0  0  0  0  0  0  0  0  0
  -88.4356   28.4057    0.3577 N   0  0  0  0  0  0  0  0  0  0  0  0
  -88.2230   27.5214   -0.2176 H   0  0  0  0  0  0  0  0  0  0  0  0
  -89.2617   28.2321    1.4748 C   0  0  0  0  0  0  0  0  0  0  0  0
  -90.5082   28.7860    1.6360 C   0  0  0  0  0  0  0  0  0  0  0  0
  -91.2442   28.5382    2.8054 C   0  0  0  0  0  0  0  0  0  0  0  0
  -90.7450   27.7438    3.8111 C   0  0  0  0  0  0  0  0  0  0  0  0
  -89.4961   27.1791    3.6679 C   0  0  0  0  0  0  0  0  0  0  0  0
  -88.8019   27.4286    2.5354 C   0  0  0  0  0  0  0  0  0  0  0  0
  -87.5648   26.8490    2.4314 F   0  0  0  0  0  0  0  0  0  0  0  0
 21 22  1  0  0  0
 22 15  1  0  0  0
 15 16  2  0  0  0
 16 17  1  0  0  0
 17 18  2  0  0  0
 18 13  1  0  0  0
 13  1  1  0  0  0
  1  2  2  0  0  0
  2  3  1  0  0  0
  3  4  2  0  0  0
  4  5  1  0  0  0
  5  6  2  0  0  0
  6 23  1  0  0  0
 23 25  1  0  0  0
 25 26  2  0  0  0
 26 27  1  0  0  0
 27 28  2  0  0  0
 28 29  1  0  0  0
 29 30  2  0  0  0
 30 31  1  0  0  0
  6  7  1  0  0  0
  7 10  1  0  0  0
 10 11  1  0  0  0
 10 12  1  0  0  0
  7  8  1  0  0  0
  8  9  2  0  0  0
 18 19  1  0  0  0
 19 20  2  0  0  0
 20 15  1  0  0  0
  9  1  1  0  0  0
  8  4  1  0  0  0
 30 25  1  0  0  0
 13 14  1  0  0  0
 23 24  1  0  0  0
M  END
> <minimizedAffinity>
-7.32768

> <CNNscore>
0.2321191281

> <CNNaffinity>
6.5250616074

> <CNN_VS>
1.5145915747

> <CNNaffinity_variance>
0.1138271093

$$$$
[H]c1c([H])c([H])c(N([H])c2nc3c([H])nc(N([H])c4c([H])c([H])c(OC([H])([H])[H])c([H])c4[H])nc3n2C([H])(C([H])([H])[H])C([H])([H])[H])c(F)c1[H]


 31 34  0  0  0  0  0  0  0  0999 V2000
  -86.1615   33.1345   -1.2192 C   0  0  0  0  0  0  0  0  0  0  0  0
  -86.9738   32.0786   -1.2509 N   0  0  0  0  0  0  0  0  0  0  0  0
  -88.1329   31.9974   -1.9016 C   0  0  0  0  0  0  0  0  0  0  0  0
  -88.5565   33.0980   -2.6193 C   0  0  0  0  0  0  0  0  0  0  0  0
  -89.6285   33.3731   -3.3698 N   0  0  0  0  0  0  0  0  0  0  0  0
  -89.5203   34.6245   -3.8372 C   0  0  0  0  0  0  0  0  0  0  0  0
  -88.3592   35.1749   -3.3846 N   0  0  0  0  0  0  0  0  0  0  0  0
  -87.7663   34.2210   -2.6291 C   0  0  0  0  0  0  0  0  0  0  0  0
  -86.6168   34.2135   -1.9465 N   0  0  0  0  0  0  0  0  0  0  0  0
  -87.8382   36.5086   -3.6429 C   0  0  0  0  0  0  0  0  0  0  0  0
  -88.9088   37.5716   -3.4899 C   0  0  0  0  0  0  0  0  0  0  0  0
  -87.1258   36.5996   -4.9583 C   0  0  0  0  0  0  0  0  0  0  0  0
  -84.9470   33.2193   -0.5376 N   0  0  0  0  0  0  0  0  0  0  0  0
  -84.4568   34.1666   -0.5284 H   0  0  0  0  0  0  0  0  0  0  0  0
  -83.1849   30.0330    1.6236 C   0  0  0  0  0  0  0  0  0  0  0  0
  -82.5864   30.5289    0.4915 C   0  0  0  0  0  0  0  0  0  0  0  0
  -83.1397   31.5808   -0.2338 C   0  0  0  0  0  0  0  0  0  0  0  0
  -84.3024   32.1743    0.1377 C   0  0  0  0  0  0  0  0  0  0  0  0
  -84.9095   31.6500    1.3119 C   0  0  0  0  0  0  0  0  0  0  0  0
  -84.3590   30.6283    2.0049 C   0  0  0  0  0  0  0  0  0  0  0  0
  -83.4029   27.8490    2.6240 C   0  0  0  0  0  0  0  0  0  0  0  0
  -82.6222   28.9849    2.3358 O   0  0  0  0  0  0  0  0  0  0  0  0
  -90.4442   35.2956   -4.6683 N   0  0  0  0  0  0  0  0  0  0  0  0
  -91.1720   35.8861   -4.1394 H   0  0  0  0  0  0  0  0  0  0  0  0
  -90.5430   35.2991   -6.0649 C   0  0  0  0  0  0  0  0  0  0  0  0
  -90.1198   36.3127   -6.8896 C   0  0  0  0  0  0  0  0  0  0  0  0
  -90.2730   36.2008   -8.2805 C   0  0  0  0  0  0  0  0  0  0  0  0
  -90.8443   35.0871   -8.8508 C   0  0  0  0  0  0  0  0  0  0  0  0
  -91.2752   34.0596   -8.0400 C   0  0  0  0  0  0  0  0  0  0  0  0
  -91.1195   34.1846   -6.7033 C   0  0  0  0  0  0  0  0  0  0  0  0
  -91.5606   33.1417   -5.9319 F   0  0  0  0  0  0  0  0  0  0  0  0
 21 22  1  0  0  0
 22 15  1  0  0  0
 15 16  2  0  0  0
 16 17  1  0  0  0
 17 18  2  0  0  0
 18 13  1  0  0  0
 13  1  1  0  0  0
  1  2  2  0  0  0
  2  3  1  0  0  0
  3  4  2  0  0  0
  4  5  1  0  0  0
  5  6  2  0  0  0
  6 23  1  0  0  0
 23 25  1  0  0  0
 25 26  2  0  0  0
 26 27  1  0  0  0
 27 28  2  0  0  0
 28 29  1  0  0  0
 29 30  2  0  0  0
 30 31  1  0  0  0
  6  7  1  0  0  0
  7 10  1  0  0  0
 10 11  1  0  0  0
 10 12  1  0  0  0
  7  8  1  0  0  0
  8  9  2  0  0  0
 18 19  1  0  0  0
 19 20  2  0  0  0
 20 15  1  0  0  0
  9  1  1  0  0  0
  8  4  1  0  0  0
 30 25  1  0  0  0
 13 14  1  0  0  0
 23 24  1  0  0  0
M  END
> <minimizedAffinity>
-8.02540

> <CNNscore>
0.1374046206

> <CNNaffinity>
6.1397628784

> <CNN_VS>
0.8436318040

> <CNNaffinity_variance>
0.1354952306

$$$$
[H]c1c([H])c([H])c(N([H])c2nc3c([H])nc(N([H])c4c([H])c([H])c(OC([H])([H])[H])c([H])c4[H])nc3n2C([H])(C([H])([H])[H])C([H])([H])[H])c(F)c1[H]


 31 34  0  0  0  0  0  0  0  0999 V2000
  -86.3401   32.1241   -0.7143 C   0  0  0  0  0  0  0  0  0  0  0  0
  -85.2622   31.7824   -0.0093 N   0  0  0  0  0  0  0  0  0  0  0  0
  -85.1140   30.6737    0.7133 C   0  0  0  0  0  0  0  0  0  0  0  0
  -86.1620   29.7759    0.7526 C   0  0  0  0  0  0  0  0  0  0  0  0
  -86.3665   28.5978    1.3513 N   0  0  0  0  0  0  0  0  0  0  0  0
  -87.5932   28.1593    1.0366 C   0  0  0  0  0  0  0  0  0  0  0  0
  -88.1991   29.0655    0.2195 N   0  0  0  0  0  0  0  0  0  0  0  0
  -87.3042   30.0665    0.0478 C   0  0  0  0  0  0  0  0  0  0  0  0
  -87.3652   31.2045   -0.6513 N   0  0  0  0  0  0  0  0  0  0  0  0
  -89.5306   28.9987   -0.3632 C   0  0  0  0  0  0  0  0  0  0  0  0
  -90.6018   29.4050    0.6302 C   0  0  0  0  0  0  0  0  0  0  0  0
  -89.8119   27.6696   -0.9960 C   0  0  0  0  0  0  0  0  0  0  0  0
  -86.4951   33.2858   -1.4715 N   0  0  0  0  0  0  0  0  0  0  0  0
  -85.9309   34.1411   -1.1751 H   0  0  0  0  0  0  0  0  0  0  0  0
  -89.0571   33.9600   -4.7745 C   0  0  0  0  0  0  0  0  0  0  0  0
  -88.2156   32.8750   -4.7488 C   0  0  0  0  0  0  0  0  0  0  0  0
  -87.3687   32.6250   -3.6723 C   0  0  0  0  0  0  0  0  0  0  0  0
  -87.3271   33.4407   -2.5883 C   0  0  0  0  0  0  0  0  0  0  0  0
  -88.2042   34.5592   -2.6299 C   0  0  0  0  0  0  0  0  0  0  0  0
  -89.0207   34.7875   -3.6826 C   0  0  0  0  0  0  0  0  0  0  0  0
  -91.1149   33.4986   -5.9453 C   0  0  0  0  0  0  0  0  0  0  0  0
  -89.8951   34.1962   -5.8535 O   0  0  0  0  0  0  0  0  0  0  0  0
  -88.1927   26.9548    1.4663 N   0  0  0  0  0  0  0  0  0  0  0  0
  -87.9508   26.0970    0.8632 H   0  0  0  0  0  0  0  0  0  0  0  0
  -89.0457   26.7256    2.5527 C   0  0  0  0  0  0  0  0  0  0  0  0
  -89.2192   27.5723    3.6201 C   0  0  0  0  0  0  0  0  0  0  0  0
  -90.1063   27.2319    4.6535 C   0  0  0  0  0  0  0  0  0  0  0  0
  -90.8185   26.0555    4.6275 C   0  0  0  0  0  0  0  0  0  0  0  0
  -90.6580   25.1929    3.5650 C   0  0  0  0  0  0  0  0  0  0  0  0
  -89.7997   25.5370    2.5793 C   0  0  0  0  0  0  0  0  0  0  0  0
  -89.6683   24.6528    1.5410 F   0  0  0  0  0  0  0  0  0  0  0  0
 21 22  1  0  0  0
 22 15  1  0  0  0
 15 16  2  0  0  0
 16 17  1  0  0  0
 17 18  2  0  0  0
 18 13  1  0  0  0
 13  1  1  0  0  0
  1  2  2  0  0  0
  2  3  1  0  0  0
  3  4  2  0  0  0
  4  5  1  0  0  0
  5  6  2  0  0  0
  6 23  1  0  0  0
 23 25  1  0  0  0
 25 26  2  0  0  0
 26 27  1  0  0  0
 27 28  2  0  0  0
 28 29  1  0  0  0
 29 30  2  0  0  0
 30 31  1  0  0  0
  6  7  1  0  0  0
  7 10  1  0  0  0
 10 11  1  0  0  0
 10 12  1  0  0  0
  7  8  1  0  0  0
  8  9  2  0  0  0
 18 19  1  0  0  0
 19 20  2  0  0  0
 20 15  1  0  0  0
  9  1  1  0  0  0
  8  4  1  0  0  0
 30 25  1  0  0  0
 13 14  1  0  0  0
 23 24  1  0  0  0
M  END
> <minimizedAffinity>
-7.55493

> <CNNscore>
0.1090793908

> <CNNaffinity>
6.4198160172

> <CNN_VS>
0.7002696395

> <CNNaffinity_variance>
0.2519718409

$$$$
[H]c1c([H])c([H])c(N([H])c2nc3c([H])nc(N([H])c4c([H])c([H])c(OC([H])([H])[H])c([H])c4[H])nc3n2C([H])(C([H])([H])[H])C([H])([H])[H])c(F)c1[H]


 31 34  0  0  0  0  0  0  0  0999 V2000
  -88.0257   32.5195   -3.7970 C   0  0  0  0  0  0  0  0  0  0  0  0
  -87.3050   33.6388   -3.7380 N   0  0  0  0  0  0  0  0  0  0  0  0
  -86.4828   33.9938   -2.7524 C   0  0  0  0  0  0  0  0  0  0  0  0
  -86.3459   33.1385   -1.6774 C   0  0  0  0  0  0  0  0  0  0  0  0
  -85.6361   33.1616   -0.5443 N   0  0  0  0  0  0  0  0  0  0  0  0
  -85.8928   32.0447    0.1503 C   0  0  0  0  0  0  0  0  0  0  0  0
  -86.7843   31.2803   -0.5403 N   0  0  0  0  0  0  0  0  0  0  0  0
  -87.0609   31.9661   -1.6741 C   0  0  0  0  0  0  0  0  0  0  0  0
  -87.8635   31.6909   -2.7072 N   0  0  0  0  0  0  0  0  0  0  0  0
  -87.3417   29.9903   -0.1630 C   0  0  0  0  0  0  0  0  0  0  0  0
  -86.7139   28.8540   -0.9467 C   0  0  0  0  0  0  0  0  0  0  0  0
  -88.8387   29.9724   -0.2296 C   0  0  0  0  0  0  0  0  0  0  0  0
  -88.8870   32.1477   -4.8298 N   0  0  0  0  0  0  0  0  0  0  0  0
  -88.5592   31.3714   -5.4838 H   0  0  0  0  0  0  0  0  0  0  0  0
  -92.6019   33.9322   -5.8007 C   0  0  0  0  0  0  0  0  0  0  0  0
  -92.5392   32.8688   -4.9340 C   0  0  0  0  0  0  0  0  0  0  0  0
  -91.3307   32.2682   -4.5912 C   0  0  0  0  0  0  0  0  0  0  0  0
  -90.1470   32.7000   -5.0958 C   0  0  0  0  0  0  0  0  0  0  0  0
  -90.2286   33.8017   -5.9911 C   0  0  0  0  0  0  0  0  0  0  0  0
  -91.4102   34.3739   -6.3132 C   0  0  0  0  0  0  0  0  0  0  0  0
  -94.6846   34.9313   -5.1061 C   0  0  0  0  0  0  0  0  0  0  0  0
  -93.8128   34.5204   -6.1327 O   0  0  0  0  0  0  0  0  0  0  0  0
  -85.3439   31.6864    1.4014 N   0  0  0  0  0  0  0  0  0  0  0  0
  -85.5152   32.4039    2.1849 H   0  0  0  0  0  0  0  0  0  0  0  0
  -84.6184   30.5432    1.7583 C   0  0  0  0  0  0  0  0  0  0  0  0
  -85.1370   29.4346    2.3816 C   0  0  0  0  0  0  0  0  0  0  0  0
  -84.3064   28.3457    2.6900 C   0  0  0  0  0  0  0  0  0  0  0  0
  -82.9662   28.3571    2.3810 C   0  0  0  0  0  0  0  0  0  0  0  0
  -82.4273   29.4604    1.7555 C   0  0  0  0  0  0  0  0  0  0  0  0
  -83.2419   30.4994    1.4663 C   0  0  0  0  0  0  0  0  0  0  0  0
  -82.6681   31.5771    0.8446 F   0  0  0  0  0  0  0  0  0  0  0  0
 21 22  1  0  0  0
 22 15  1  0  0  0
 15 16  2  0  0  0
 16 17  1  0  0  0
 17 18  2  0  0  0
 18 13  1  0  0  0
 13  1  1  0  0  0
  1  2  2  0  0  0
  2  3  1  0  0  0
  3  4  2  0  0  0
  4  5  1  0  0  0
  5  6  2  0  0  0
  6 23  1  0  0  0
 23 25  1  0  0  0
 25 26  2  0  0  0
 26 27  1  0  0  0
 27 28  2  0  0  0
 28 29  1  0  0  0
 29 30  2  0  0  0
 30 31  1  0  0  0
  6  7  1  0  0  0
  7 10  1  0  0  0
 10 11  1  0  0  0
 10 12  1  0  0  0
  7  8  1  0  0  0
  8  9  2  0  0  0
 18 19  1  0  0  0
 19 20  2  0  0  0
 20 15  1  0  0  0
  9  1  1  0  0  0
  8  4  1  0  0  0
 30 25  1  0  0  0
 13 14  1  0  0  0
 23 24  1  0  0  0
M  END
> <minimizedAffinity>
-8.29591

> <CNNscore>
0.1088637933

> <CNNaffinity>
6.2227282524

> <CNN_VS>
0.6774297953

> <CNNaffinity_variance>
0.2226449251

$$$$
[H]c1c([H])c([H])c(N([H])c2nc3c([H])nc(N([H])c4c([H])c([H])c(OC([H])([H])[H])c([H])c4[H])nc3n2C([H])(C([H])([H])[H])C([H])([H])[H])c(F)c1[H]


 31 34  0  0  0  0  0  0  0  0999 V2000
  -86.3416   33.3686   -1.6722 C   0  0  0  0  0  0  0  0  0  0  0  0
  -86.4592   34.1779   -2.7243 N   0  0  0  0  0  0  0  0  0  0  0  0
  -87.3035   34.0261   -3.7429 C   0  0  0  0  0  0  0  0  0  0  0  0
  -88.1486   32.9345   -3.7323 C   0  0  0  0  0  0  0  0  0  0  0  0
  -89.0957   32.4729   -4.5558 N   0  0  0  0  0  0  0  0  0  0  0  0
  -89.6073   31.3470   -4.0395 C   0  0  0  0  0  0  0  0  0  0  0  0
  -88.9841   31.0690   -2.8603 N   0  0  0  0  0  0  0  0  0  0  0  0
  -88.0797   32.0592   -2.6764 C   0  0  0  0  0  0  0  0  0  0  0  0
  -87.2006   32.2906   -1.6961 N   0  0  0  0  0  0  0  0  0  0  0  0
  -89.2203   29.9482   -1.9632 C   0  0  0  0  0  0  0  0  0  0  0  0
  -89.7293   30.4065   -0.6103 C   0  0  0  0  0  0  0  0  0  0  0  0
  -88.0295   29.0452   -1.8502 C   0  0  0  0  0  0  0  0  0  0  0  0
  -85.4570   33.5280   -0.6050 N   0  0  0  0  0  0  0  0  0  0  0  0
  -85.3690   34.5045   -0.1849 H   0  0  0  0  0  0  0  0  0  0  0  0
  -83.2513   30.4066    1.2171 C   0  0  0  0  0  0  0  0  0  0  0  0
  -82.6617   31.2385    0.2972 C   0  0  0  0  0  0  0  0  0  0  0  0
  -83.3611   32.2774   -0.3113 C   0  0  0  0  0  0  0  0  0  0  0  0
  -84.6655   32.5252   -0.0295 C   0  0  0  0  0  0  0  0  0  0  0  0
  -85.2614   31.6556    0.9249 C   0  0  0  0  0  0  0  0  0  0  0  0
  -84.5682   30.6517    1.5069 C   0  0  0  0  0  0  0  0  0  0  0  0
  -83.2431   28.3494    2.4764 C   0  0  0  0  0  0  0  0  0  0  0  0
  -82.5422   29.3761    1.8150 O   0  0  0  0  0  0  0  0  0  0  0  0
  -90.6296   30.5513   -4.6022 N   0  0  0  0  0  0  0  0  0  0  0  0
  -90.2794   29.7807   -5.2668 H   0  0  0  0  0  0  0  0  0  0  0  0
  -92.0155   30.6252   -4.4177 C   0  0  0  0  0  0  0  0  0  0  0  0
  -92.6529   31.4006   -3.4802 C   0  0  0  0  0  0  0  0  0  0  0  0
  -94.0538   31.3907   -3.3910 C   0  0  0  0  0  0  0  0  0  0  0  0
  -94.8193   30.6139   -4.2291 C   0  0  0  0  0  0  0  0  0  0  0  0
  -94.1982   29.8290   -5.1763 C   0  0  0  0  0  0  0  0  0  0  0  0
  -92.8487   29.8512   -5.2477 C   0  0  0  0  0  0  0  0  0  0  0  0
  -92.2696   29.0572   -6.2022 F   0  0  0  0  0  0  0  0  0  0  0  0
 21 22  1  0  0  0
 22 15  1  0  0  0
 15 16  2  0  0  0
 16 17  1  0  0  0
 17 18  2  0  0  0
 18 13  1  0  0  0
 13  1  1  0  0  0
  1  2  2  0  0  0
  2  3  1  0  0  0
  3  4  2  0  0  0
  4  5  1  0  0  0
  5  6  2  0  0  0
  6 23  1  0  0  0
 23 25  1  0  0  0
 25 26  2  0  0  0
 26 27  1  0  0  0
 27 28  2  0  0  0
 28 29  1  0  0  0
 29 30  2  0  0  0
 30 31  1  0  0  0
  6  7  1  0  0  0
  7 10  1  0  0  0
 10 11  1  0  0  0
 10 12  1  0  0  0
  7  8  1  0  0  0
  8  9  2  0  0  0
 18 19  1  0  0  0
 19 20  2  0  0  0
 20 15  1  0  0  0
  9  1  1  0  0  0
  8  4  1  0  0  0
 30 25  1  0  0  0
 13 14  1  0  0  0
 23 24  1  0  0  0
M  END
> <minimizedAffinity>
-7.81948

> <CNNscore>
0.0812441781

> <CNNaffinity>
6.1069726944

> <CNN_VS>
0.4961559772

> <CNNaffinity_variance>
0.1526084691

$$$$
[H]c1c([H])c([H])c(N([H])c2nc3c([H])nc(N([H])c4c([H])c([H])c(OC([H])([H])[H])c([H])c4[H])nc3n2C([H])(C([H])([H])[H])C([H])([H])[H])c(F)c1[H]


 31 34  0  0  0  0  0  0  0  0999 V2000
  -87.9651   33.4248   -3.7131 C   0  0  0  0  0  0  0  0  0  0  0  0
  -87.1476   34.2775   -3.0965 N   0  0  0  0  0  0  0  0  0  0  0  0
  -86.4673   34.0440   -1.9757 C   0  0  0  0  0  0  0  0  0  0  0  0
  -86.6043   32.8085   -1.3751 C   0  0  0  0  0  0  0  0  0  0  0  0
  -86.0946   32.2361   -0.2792 N   0  0  0  0  0  0  0  0  0  0  0  0
  -86.5825   30.9924   -0.1736 C   0  0  0  0  0  0  0  0  0  0  0  0
  -87.4240   30.7491   -1.2170 N   0  0  0  0  0  0  0  0  0  0  0  0
  -87.4324   31.8814   -1.9586 C   0  0  0  0  0  0  0  0  0  0  0  0
  -88.0769   32.2027   -3.0850 N   0  0  0  0  0  0  0  0  0  0  0  0
  -88.1724   29.5342   -1.5015 C   0  0  0  0  0  0  0  0  0  0  0  0
  -89.2126   29.2501   -0.4353 C   0  0  0  0  0  0  0  0  0  0  0  0
  -87.2788   28.3584   -1.7564 C   0  0  0  0  0  0  0  0  0  0  0  0
  -88.6776   33.6696   -4.8874 N   0  0  0  0  0  0  0  0  0  0  0  0
  -88.5838   32.9552   -5.6739 H   0  0  0  0  0  0  0  0  0  0  0  0
  -91.2318   37.0035   -5.4254 C   0  0  0  0  0  0  0  0  0  0  0  0
  -90.3914   36.5936   -6.4312 C   0  0  0  0  0  0  0  0  0  0  0  0
  -89.5470   35.4963   -6.2842 C   0  0  0  0  0  0  0  0  0  0  0  0
  -89.5070   34.7710   -5.1376 C   0  0  0  0  0  0  0  0  0  0  0  0
  -90.3831   35.2077   -4.1061 C   0  0  0  0  0  0  0  0  0  0  0  0
  -91.1971   36.2750   -4.2651 C   0  0  0  0  0  0  0  0  0  0  0  0
  -93.4312   37.8897   -5.8675 C   0  0  0  0  0  0  0  0  0  0  0  0
  -92.0673   38.0983   -5.5862 O   0  0  0  0  0  0  0  0  0  0  0  0
  -86.2913   30.0574    0.8442 N   0  0  0  0  0  0  0  0  0  0  0  0
  -87.1580   29.6365    1.3235 H   0  0  0  0  0  0  0  0  0  0  0  0
  -85.0491   29.6088    1.3091 C   0  0  0  0  0  0  0  0  0  0  0  0
  -83.8554   30.2698    1.1526 C   0  0  0  0  0  0  0  0  0  0  0  0
  -82.6708   29.7174    1.6648 C   0  0  0  0  0  0  0  0  0  0  0  0
  -82.6711   28.5134    2.3297 C   0  0  0  0  0  0  0  0  0  0  0  0
  -83.8589   27.8350    2.4967 C   0  0  0  0  0  0  0  0  0  0  0  0
  -84.9893   28.3819    1.9970 C   0  0  0  0  0  0  0  0  0  0  0  0
  -86.1491   27.6768    2.1837 F   0  0  0  0  0  0  0  0  0  0  0  0
 21 22  1  0  0  0
 22 15  1  0  0  0
 15 16  2  0  0  0
 16 17  1  0  0  0
 17 18  2  0  0  0
 18 13  1  0  0  0
 13  1  1  0  0  0
  1  2  2  0  0  0
  2  3  1  0  0  0
  3  4  2  0  0  0
  4  5  1  0  0  0
  5  6  2  0  0  0
  6 23  1  0  0  0
 23 25  1  0  0  0
 25 26  2  0  0  0
 26 27  1  0  0  0
 27 28  2  0  0  0
 28 29  1  0  0  0
 29 30  2  0  0  0
 30 31  1  0  0  0
  6  7  1  0  0  0
  7 10  1  0  0  0
 10 11  1  0  0  0
 10 12  1  0  0  0
  7  8  1  0  0  0
  8  9  2  0  0  0
 18 19  1  0  0  0
 19 20  2  0  0  0
 20 15  1  0  0  0
  9  1  1  0  0  0
  8  4  1  0  0  0
 30 25  1  0  0  0
 13 14  1  0  0  0
 23 24  1  0  0  0
M  END
> <minimizedAffinity>
-8.03051

> <CNNscore>
0.0768208057

> <CNNaffinity>
6.0352735519

> <CNN_VS>
0.4636345804

> <CNNaffinity_variance>
0.3689280152

$$$$
[H]c1c([H])c([H])c(N([H])c2nc3c([H])nc(N([H])c4c([H])c([H])c(OC([H])([H])[H])c([H])c4[H])nc3n2C([H])(C([H])([H])[H])C([H])([H])[H])c(F)c1[H]


 31 34  0  0  0  0  0  0  0  0999 V2000
  -89.6931   26.0611   -1.2242 C   0  0  0  0  0  0  0  0  0  0  0  0
  -88.8525   25.4566   -0.3854 N   0  0  0  0  0  0  0  0  0  0  0  0
  -87.8848   26.0430    0.3169 C   0  0  0  0  0  0  0  0  0  0  0  0
  -87.7150   27.4063    0.1812 C   0  0  0  0  0  0  0  0  0  0  0  0
  -86.8769   28.3047    0.7092 N   0  0  0  0  0  0  0  0  0  0  0  0
  -87.1695   29.5143    0.2119 C   0  0  0  0  0  0  0  0  0  0  0  0
  -88.2151   29.4038   -0.6544 N   0  0  0  0  0  0  0  0  0  0  0  0
  -88.5483   28.0919   -0.6681 C   0  0  0  0  0  0  0  0  0  0  0  0
  -89.4936   27.4208   -1.3340 N   0  0  0  0  0  0  0  0  0  0  0  0
  -88.8610   30.4588   -1.4204 C   0  0  0  0  0  0  0  0  0  0  0  0
  -88.0040   30.9154   -2.5851 C   0  0  0  0  0  0  0  0  0  0  0  0
  -89.3085   31.5998   -0.5579 C   0  0  0  0  0  0  0  0  0  0  0  0
  -90.7070   25.4466   -1.9598 N   0  0  0  0  0  0  0  0  0  0  0  0
  -90.6836   24.3825   -2.0300 H   0  0  0  0  0  0  0  0  0  0  0  0
  -93.9870   27.4243   -3.7650 C   0  0  0  0  0  0  0  0  0  0  0  0
  -92.8188   27.2254   -4.4590 C   0  0  0  0  0  0  0  0  0  0  0  0
  -91.7278   26.5714   -3.8927 C   0  0  0  0  0  0  0  0  0  0  0  0
  -91.7580   26.0947   -2.6223 C   0  0  0  0  0  0  0  0  0  0  0  0
  -92.9743   26.3081   -1.9171 C   0  0  0  0  0  0  0  0  0  0  0  0
  -94.0246   26.9447   -2.4817 C   0  0  0  0  0  0  0  0  0  0  0  0
  -94.8401   28.9807   -5.3984 C   0  0  0  0  0  0  0  0  0  0  0  0
  -95.0654   28.0773   -4.3420 O   0  0  0  0  0  0  0  0  0  0  0  0
  -86.5178   30.7298    0.5162 N   0  0  0  0  0  0  0  0  0  0  0  0
  -87.1798   31.5368    0.7780 H   0  0  0  0  0  0  0  0  0  0  0  0
  -85.1493   31.0260    0.5245 C   0  0  0  0  0  0  0  0  0  0  0  0
  -84.1816   30.2965    1.1709 C   0  0  0  0  0  0  0  0  0  0  0  0
  -82.8370   30.6946    1.1059 C   0  0  0  0  0  0  0  0  0  0  0  0
  -82.4543   31.8126    0.4021 C   0  0  0  0  0  0  0  0  0  0  0  0
  -83.4107   32.5576   -0.2531 C   0  0  0  0  0  0  0  0  0  0  0  0
  -84.7001   32.1594   -0.1795 C   0  0  0  0  0  0  0  0  0  0  0  0
  -85.6203   32.9266   -0.8442 F   0  0  0  0  0  0  0  0  0  0  0  0
 21 22  1  0  0  0
 22 15  1  0  0  0
 15 16  2  0  0  0
 16 17  1  0  0  0
 17 18  2  0  0  0
 18 13  1  0  0  0
 13  1  1  0  0  0
  1  2  2  0  0  0
  2  3  1  0  0  0
  3  4  2  0  0  0
  4  5  1  0  0  0
  5  6  2  0  0  0
  6 23  1  0  0  0
 23 25  1  0  0  0
 25 26  2  0  0  0
 26 27  1  0  0  0
 27 28  2  0  0  0
 28 29  1  0  0  0
 29 30  2  0  0  0
 30 31  1  0  0  0
  6  7  1  0  0  0
  7 10  1  0  0  0
 10 11  1  0  0  0
 10 12  1  0  0  0
  7  8  1  0  0  0
  8  9  2  0  0  0
 18 19  1  0  0  0
 19 20  2  0  0  0
 20 15  1  0  0  0
  9  1  1  0  0  0
  8  4  1  0  0  0
 30 25  1  0  0  0
 13 14  1  0  0  0
 23 24  1  0  0  0
M  END
> <minimizedAffinity>
-7.59511

> <CNNscore>
0.0587958880

> <CNNaffinity>
5.8187236786

> <CNN_VS>
0.3421170115

> <CNNaffinity_variance>
0.3186668754

$$$$
[H]c1c([H])c([H])c(N([H])c2nc3c([H])nc(N([H])c4c([H])c([H])c(OC([H])([H])[H])c([H])c4[H])nc3n2C([H])(C([H])([H])[H])C([H])([H])[H])c(F)c1[H]


 31 34  0  0  0  0  0  0  0  0999 V2000
  -86.8336   32.7660   -0.8041 C   0  0  0  0  0  0  0  0  0  0  0  0
  -87.2823   33.4840   -1.8331 N   0  0  0  0  0  0  0  0  0  0  0  0
  -88.3896   33.2471   -2.5340 C   0  0  0  0  0  0  0  0  0  0  0  0
  -89.1646   32.1604   -2.1814 C   0  0  0  0  0  0  0  0  0  0  0  0
  -90.3036   31.6314   -2.6410 N   0  0  0  0  0  0  0  0  0  0  0  0
  -90.6077   30.5529   -1.9058 C   0  0  0  0  0  0  0  0  0  0  0  0
  -89.6521   30.3751   -0.9513 N   0  0  0  0  0  0  0  0  0  0  0  0
  -88.7595   31.3771   -1.1288 C   0  0  0  0  0  0  0  0  0  0  0  0
  -87.6325   31.6900   -0.4812 N   0  0  0  0  0  0  0  0  0  0  0  0
  -89.5793   29.3337    0.0623 C   0  0  0  0  0  0  0  0  0  0  0  0
  -89.1700   27.9988   -0.5294 C   0  0  0  0  0  0  0  0  0  0  0  0
  -90.8346   29.2381    0.8753 C   0  0  0  0  0  0  0  0  0  0  0  0
  -85.6734   33.0145   -0.0699 N   0  0  0  0  0  0  0  0  0  0  0  0
  -85.4268   34.0340    0.1241 H   0  0  0  0  0  0  0  0  0  0  0  0
  -83.1875   30.0020    1.5652 C   0  0  0  0  0  0  0  0  0  0  0  0
  -82.7176   30.8471    0.5900 C   0  0  0  0  0  0  0  0  0  0  0  0
  -83.5107   31.8511    0.0406 C   0  0  0  0  0  0  0  0  0  0  0  0
  -84.7931   32.0498    0.4380 C   0  0  0  0  0  0  0  0  0  0  0  0
  -85.2646   31.1673    1.4484 C   0  0  0  0  0  0  0  0  0  0  0  0
  -84.4815   30.1977    1.9718 C   0  0  0  0  0  0  0  0  0  0  0  0
  -82.9839   27.8311    2.5966 C   0  0  0  0  0  0  0  0  0  0  0  0
  -82.3861   29.0066    2.1031 O   0  0  0  0  0  0  0  0  0  0  0  0
  -91.7315   29.7130   -2.0682 N   0  0  0  0  0  0  0  0  0  0  0  0
  -92.4704   29.8023   -1.2910 H   0  0  0  0  0  0  0  0  0  0  0  0
  -92.0133   28.7934   -3.0858 C   0  0  0  0  0  0  0  0  0  0  0  0
  -91.7781   27.4416   -3.0237 C   0  0  0  0  0  0  0  0  0  0  0  0
  -92.1045   26.6182   -4.1127 C   0  0  0  0  0  0  0  0  0  0  0  0
  -92.6622   27.1344   -5.2591 C   0  0  0  0  0  0  0  0  0  0  0  0
  -92.9058   28.4883   -5.3405 C   0  0  0  0  0  0  0  0  0  0  0  0
  -92.5851   29.2657   -4.2824 C   0  0  0  0  0  0  0  0  0  0  0  0
  -92.8427   30.6059   -4.4027 F   0  0  0  0  0  0  0  0  0  0  0  0
 21 22  1  0  0  0
 22 15  1  0  0  0
 15 16  2  0  0  0
 16 17  1  0  0  0
 17 18  2  0  0  0
 18 13  1  0  0  0
 13  1  1  0  0  0
  1  2  2  0  0  0
  2  3  1  0  0  0
  3  4  2  0  0  0
  4  5  1  0  0  0
  5  6  2  0  0  0
  6 23  1  0  0  0
 23 25  1  0  0  0
 25 26  2  0  0  0
 26 27  1  0  0  0
 27 28  2  0  0  0
 28 29  1  0  0  0
 29 30  2  0  0  0
 30 31  1  0  0  0
  6  7  1  0  0  0
  7 10  1  0  0  0
 10 11  1  0  0  0
 10 12  1  0  0  0
  7  8  1  0  0  0
  8  9  2  0  0  0
 18 19  1  0  0  0
 19 20  2  0  0  0
 20 15  1  0  0  0
  9  1  1  0  0  0
  8  4  1  0  0  0
 30 25  1  0  0  0
 13 14  1  0  0  0
 23 24  1  0  0  0
M  END
> <minimizedAffinity>
-8.04677

> <CNNscore>
0.0549742393

> <CNNaffinity>
6.0148053169

> <CNN_VS>
0.3306593597

> <CNNaffinity_variance>
0.2386858016

$$$$
[H]c1c([H])c([H])c(N([H])c2nc3c([H])nc(N([H])c4c([H])c([H])c(OC([H])([H])[H])c([H])c4[H])nc3n2C([H])(C([H])([H])[H])C([H])([H])[H])c(F)c1[H]


 31 34  0  0  0  0  0  0  0  0999 V2000
  -87.9233   33.1713   -3.8301 C   0  0  0  0  0  0  0  0  0  0  0  0
  -87.2132   34.1375   -3.2487 N   0  0  0  0  0  0  0  0  0  0  0  0
  -86.5731   34.0511   -2.0841 C   0  0  0  0  0  0  0  0  0  0  0  0
  -86.6353   32.8577   -1.3928 C   0  0  0  0  0  0  0  0  0  0  0  0
  -86.1351   32.4177   -0.2333 N   0  0  0  0  0  0  0  0  0  0  0  0
  -86.5206   31.1474   -0.0496 C   0  0  0  0  0  0  0  0  0  0  0  0
  -87.2846   30.7519   -1.1060 N   0  0  0  0  0  0  0  0  0  0  0  0
  -87.3512   31.8193   -1.9357 C   0  0  0  0  0  0  0  0  0  0  0  0
  -87.9628   31.9956   -3.1114 N   0  0  0  0  0  0  0  0  0  0  0  0
  -87.9120   29.4575   -1.3245 C   0  0  0  0  0  0  0  0  0  0  0  0
  -88.9880   29.1715   -0.2950 C   0  0  0  0  0  0  0  0  0  0  0  0
  -86.9111   28.3470   -1.4293 C   0  0  0  0  0  0  0  0  0  0  0  0
  -88.5936   33.2621   -5.0504 N   0  0  0  0  0  0  0  0  0  0  0  0
  -88.0150   33.5233   -5.9076 H   0  0  0  0  0  0  0  0  0  0  0  0
  -92.7262   32.4657   -5.5145 C   0  0  0  0  0  0  0  0  0  0  0  0
  -92.1336   33.5105   -6.1801 C   0  0  0  0  0  0  0  0  0  0  0  0
  -90.7756   33.7901   -6.0520 C   0  0  0  0  0  0  0  0  0  0  0  0
  -89.9619   33.0456   -5.2610 C   0  0  0  0  0  0  0  0  0  0  0  0
  -90.5902   31.9675   -4.5790 C   0  0  0  0  0  0  0  0  0  0  0  0
  -91.9101   31.7092   -4.7146 C   0  0  0  0  0  0  0  0  0  0  0  0
  -94.4932   31.1334   -6.4742 C   0  0  0  0  0  0  0  0  0  0  0  0
  -94.0799   32.1991   -5.6519 O   0  0  0  0  0  0  0  0  0  0  0  0
  -86.2032   30.3222    1.0517 N   0  0  0  0  0  0  0  0  0  0  0  0
  -87.0399   30.0827    1.6847 H   0  0  0  0  0  0  0  0  0  0  0  0
  -84.9684   29.7801    1.4286 C   0  0  0  0  0  0  0  0  0  0  0  0
  -83.7453   30.3711    1.2260 C   0  0  0  0  0  0  0  0  0  0  0  0
  -82.5720   29.7273    1.6498 C   0  0  0  0  0  0  0  0  0  0  0  0
  -82.6126   28.5014    2.2722 C   0  0  0  0  0  0  0  0  0  0  0  0
  -83.8303   27.8923    2.4843 C   0  0  0  0  0  0  0  0  0  0  0  0
  -84.9494   28.5268    2.0697 C   0  0  0  0  0  0  0  0  0  0  0  0
  -86.1398   27.8885    2.2989 F   0  0  0  0  0  0  0  0  0  0  0  0
 21 22  1  0  0  0
 22 15  1  0  0  0
 15 16  2  0  0  0
 16 17  1  0  0  0
 17 18  2  0  0  0
 18 13  1  0  0  0
 13  1  1  0  0  0
  1  2  2  0  0  0
  2  3  1  0  0  0
  3  4  2  0  0  0
  4  5  1  0  0  0
  5  6  2  0  0  0
  6 23  1  0  0  0
 23 25  1  0  0  0
 25 26  2  0  0  0
 26 27  1  0  0  0
 27 28  2  0  0  0
 28 29  1  0  0  0
 29 30  2  0  0  0
 30 31  1  0  0  0
  6  7  1  0  0  0
  7 10  1  0  0  0
 10 11  1  0  0  0
 10 12  1  0  0  0
  7  8  1  0  0  0
  8  9  2  0  0  0
 18 19  1  0  0  0
 19 20  2  0  0  0
 20 15  1  0  0  0
  9  1  1  0  0  0
  8  4  1  0  0  0
 30 25  1  0  0  0
 13 14  1  0  0  0
 23 24  1  0  0  0
M  END
> <minimizedAffinity>
-8.09123

> <CNNscore>
0.0490040518

> <CNNaffinity>
5.8557114601

> <CNN_VS>
0.2869535983

> <CNNaffinity_variance>
0.3434608579

$$$$
[H]c1nc(-c2c([H])c([H])c(OC([H])([H])C([H])([H])C([H])([H])N3C([H])([H])C([H])([H])C([H])(C([H])([H])c4c([H])nc([H])n4[H])C([H])([H])C3([H])[H])c([H])c2[H])nc([H])c1[H]


 29 32  0  0  0  0  0  0  0  0999 V2000
  -89.5763   31.1007   -4.4336 C   0  0  0  0  0  0  0  0  0  0  0  0
  -90.7240   30.3912   -3.7398 C   0  0  0  0  0  0  0  0  0  0  0  0
  -90.2387   29.1725   -3.2666 O   0  0  0  0  0  0  0  0  0  0  0  0
  -87.3445   28.8585   -0.2048 C   0  0  0  0  0  0  0  0  0  0  0  0
  -88.5820   29.4172    0.0303 C   0  0  0  0  0  0  0  0  0  0  0  0
  -89.5386   29.5222   -0.9777 C   0  0  0  0  0  0  0  0  0  0  0  0
  -89.2795   29.0683   -2.2525 C   0  0  0  0  0  0  0  0  0  0  0  0
  -88.0400   28.5100   -2.4824 C   0  0  0  0  0  0  0  0  0  0  0  0
  -87.0835   28.4038   -1.4790 C   0  0  0  0  0  0  0  0  0  0  0  0
  -84.4817   28.6088    2.8668 C   0  0  0  0  0  0  0  0  0  0  0  0
  -85.1010   29.8016    2.5647 C   0  0  0  0  0  0  0  0  0  0  0  0
  -86.0105   29.8369    1.5750 N   0  0  0  0  0  0  0  0  0  0  0  0
  -86.3495   28.7531    0.8569 C   0  0  0  0  0  0  0  0  0  0  0  0
  -85.7446   27.5958    1.1545 N   0  0  0  0  0  0  0  0  0  0  0  0
  -84.8182   27.4942    2.1418 C   0  0  0  0  0  0  0  0  0  0  0  0
  -89.9175   32.5703   -4.5325 C   0  0  0  0  0  0  0  0  0  0  0  0
  -88.8085   33.4205   -4.1410 N   0  0  0  0  0  0  0  0  0  0  0  0
  -89.1948   34.0889   -2.9126 C   0  0  0  0  0  0  0  0  0  0  0  0
  -88.7825   33.2100   -1.7249 C   0  0  0  0  0  0  0  0  0  0  0  0
  -87.2857   33.3469   -1.6096 C   0  0  0  0  0  0  0  0  0  0  0  0
  -86.6773   33.1415   -2.9552 C   0  0  0  0  0  0  0  0  0  0  0  0
  -87.6548   32.5663   -3.9532 C   0  0  0  0  0  0  0  0  0  0  0  0
  -86.7109   32.4333   -0.5530 C   0  0  0  0  0  0  0  0  0  0  0  0
  -85.2489   32.6342   -0.5080 C   0  0  0  0  0  0  0  0  0  0  0  0
  -84.5419   33.7931   -0.6878 C   0  0  0  0  0  0  0  0  0  0  0  0
  -83.2433   33.5295   -0.5638 N   0  0  0  0  0  0  0  0  0  0  0  0
  -83.1100   32.2240   -0.3082 C   0  0  0  0  0  0  0  0  0  0  0  0
  -84.3342   31.6841   -0.2753 N   0  0  0  0  0  0  0  0  0  0  0  0
  -84.5395   30.6617   -0.0927 H   0  0  0  0  0  0  0  0  0  0  0  0
 10 11  2  0  0  0
 11 12  1  0  0  0
 12 13  2  0  0  0
 13  4  1  0  0  0
  4  5  2  0  0  0
  5  6  1  0  0  0
  6  7  2  0  0  0
  7  3  1  0  0  0
  3  2  1  0  0  0
  2  1  1  0  0  0
  1 16  1  0  0  0
 16 17  1  0  0  0
 17 18  1  0  0  0
 18 19  1  0  0  0
 19 20  1  0  0  0
 20 23  1  0  0  0
 23 24  1  0  0  0
 24 25  2  0  0  0
 25 26  1  0  0  0
 26 27  2  0  0  0
 27 28  1  0  0  0
 20 21  1  0  0  0
 21 22  1  0  0  0
  7  8  1  0  0  0
  8  9  2  0  0  0
 13 14  1  0  0  0
 14 15  2  0  0  0
 15 10  1  0  0  0
  9  4  1  0  0  0
 22 17  1  0  0  0
 28 24  1  0  0  0
 28 29  1  0  0  0
M  END
> <minimizedAffinity>
-7.47294

> <CNNscore>
0.5397101045

> <CNNaffinity>
6.9431328773

> <CNN_VS>
3.7472789288

> <CNNaffinity_variance>
0.1947108060

$$$$
[H]c1nc(-c2c([H])c([H])c(OC([H])([H])C([H])([H])C([H])([H])N3C([H])([H])C([H])([H])C([H])(C([H])([H])c4c([H])nc([H])n4[H])C([H])([H])C3([H])[H])c([H])c2[H])nc([H])c1[H]


 29 32  0  0  0  0  0  0  0  0999 V2000
  -90.2106   33.7482   -5.4309 C   0  0  0  0  0  0  0  0  0  0  0  0
  -90.3617   33.3765   -3.9677 C   0  0  0  0  0  0  0  0  0  0  0  0
  -89.4984   34.1920   -3.2368 O   0  0  0  0  0  0  0  0  0  0  0  0
  -86.2885   32.6982   -0.9314 C   0  0  0  0  0  0  0  0  0  0  0  0
  -86.0804   33.5911   -1.9601 C   0  0  0  0  0  0  0  0  0  0  0  0
  -87.1371   34.0854   -2.7223 C   0  0  0  0  0  0  0  0  0  0  0  0
  -88.4352   33.6968   -2.4727 C   0  0  0  0  0  0  0  0  0  0  0  0
  -88.6381   32.8035   -1.4423 C   0  0  0  0  0  0  0  0  0  0  0  0
  -87.5860   32.3083   -0.6801 C   0  0  0  0  0  0  0  0  0  0  0  0
  -83.0444   31.2473    1.3187 C   0  0  0  0  0  0  0  0  0  0  0  0
  -82.8451   32.0400    0.2098 C   0  0  0  0  0  0  0  0  0  0  0  0
  -83.9105   32.4824   -0.4809 N   0  0  0  0  0  0  0  0  0  0  0  0
  -85.1757   32.1861   -0.1391 C   0  0  0  0  0  0  0  0  0  0  0  0
  -85.3641   31.4152    0.9397 N   0  0  0  0  0  0  0  0  0  0  0  0
  -84.3308   30.9370    1.6792 C   0  0  0  0  0  0  0  0  0  0  0  0
  -89.9168   35.2288   -5.5164 C   0  0  0  0  0  0  0  0  0  0  0  0
  -88.8965   35.5316   -6.5029 N   0  0  0  0  0  0  0  0  0  0  0  0
  -89.4875   36.4444   -7.4632 C   0  0  0  0  0  0  0  0  0  0  0  0
  -89.2691   37.8816   -6.9734 C   0  0  0  0  0  0  0  0  0  0  0  0
  -87.8135   38.1856   -7.2210 C   0  0  0  0  0  0  0  0  0  0  0  0
  -86.9886   37.0655   -6.6844 C   0  0  0  0  0  0  0  0  0  0  0  0
  -87.7815   36.1314   -5.8007 C   0  0  0  0  0  0  0  0  0  0  0  0
  -87.4128   39.5339   -6.6705 C   0  0  0  0  0  0  0  0  0  0  0  0
  -87.5921   39.5115   -5.2053 C   0  0  0  0  0  0  0  0  0  0  0  0
  -88.7362   39.7235   -4.4832 C   0  0  0  0  0  0  0  0  0  0  0  0
  -88.4553   39.6108   -3.1873 N   0  0  0  0  0  0  0  0  0  0  0  0
  -87.1532   39.3307   -3.0704 C   0  0  0  0  0  0  0  0  0  0  0  0
  -86.6329   39.2715   -4.3020 N   0  0  0  0  0  0  0  0  0  0  0  0
  -85.6175   39.0659   -4.5203 H   0  0  0  0  0  0  0  0  0  0  0  0
 10 11  2  0  0  0
 11 12  1  0  0  0
 12 13  2  0  0  0
 13  4  1  0  0  0
  4  5  2  0  0  0
  5  6  1  0  0  0
  6  7  2  0  0  0
  7  3  1  0  0  0
  3  2  1  0  0  0
  2  1  1  0  0  0
  1 16  1  0  0  0
 16 17  1  0  0  0
 17 18  1  0  0  0
 18 19  1  0  0  0
 19 20  1  0  0  0
 20 23  1  0  0  0
 23 24  1  0  0  0
 24 25  2  0  0  0
 25 26  1  0  0  0
 26 27  2  0  0  0
 27 28  1  0  0  0
 20 21  1  0  0  0
 21 22  1  0  0  0
  7  8  1  0  0  0
  8  9  2  0  0  0
 13 14  1  0  0  0
 14 15  2  0  0  0
 15 10  1  0  0  0
  9  4  1  0  0  0
 22 17  1  0  0  0
 28 24  1  0  0  0
 28 29  1  0  0  0
M  END
> <minimizedAffinity>
-6.51948

> <CNNscore>
0.1992653459

> <CNNaffinity>
5.8807997704

> <CNN_VS>
1.1718395948

> <CNNaffinity_variance>
0.1342117339

$$$$
[H]c1nc(-c2c([H])c([H])c(OC([H])([H])C([H])([H])C([H])([H])N3C([H])([H])C([H])([H])C([H])(C([H])([H])c4c([H])nc([H])n4[H])C([H])([H])C3([H])[H])c([H])c2[H])nc([H])c1[H]


 29 32  0  0  0  0  0  0  0  0999 V2000
  -90.8389   26.7642   -1.9003 C   0  0  0  0  0  0  0  0  0  0  0  0
  -91.4522   26.8720   -0.5168 C   0  0  0  0  0  0  0  0  0  0  0  0
  -90.6227   26.1793    0.3646 O   0  0  0  0  0  0  0  0  0  0  0  0
  -86.7165   27.4472    1.3565 C   0  0  0  0  0  0  0  0  0  0  0  0
  -87.8210   28.2093    1.6697 C   0  0  0  0  0  0  0  0  0  0  0  0
  -89.1106   27.7937    1.3437 C   0  0  0  0  0  0  0  0  0  0  0  0
  -89.3283   26.5990    0.6930 C   0  0  0  0  0  0  0  0  0  0  0  0
  -88.2200   25.8401    0.3820 C   0  0  0  0  0  0  0  0  0  0  0  0
  -86.9321   26.2519    0.7058 C   0  0  0  0  0  0  0  0  0  0  0  0
  -82.8455   28.7751    2.3279 C   0  0  0  0  0  0  0  0  0  0  0  0
  -83.7293   29.5877    1.6524 C   0  0  0  0  0  0  0  0  0  0  0  0
  -84.9572   29.1233    1.3618 N   0  0  0  0  0  0  0  0  0  0  0  0
  -85.3703   27.8908    1.7018 C   0  0  0  0  0  0  0  0  0  0  0  0
  -84.5074   27.1048    2.3584 N   0  0  0  0  0  0  0  0  0  0  0  0
  -83.2538   27.5144    2.6813 C   0  0  0  0  0  0  0  0  0  0  0  0
  -91.1701   28.0254   -2.6655 C   0  0  0  0  0  0  0  0  0  0  0  0
  -89.9868   28.6675   -3.2073 N   0  0  0  0  0  0  0  0  0  0  0  0
  -90.1597   30.0977   -3.0356 C   0  0  0  0  0  0  0  0  0  0  0  0
  -89.6014   30.4985   -1.6642 C   0  0  0  0  0  0  0  0  0  0  0  0
  -88.1008   30.4550   -1.8003 C   0  0  0  0  0  0  0  0  0  0  0  0
  -87.7109   29.1618   -2.4318 C   0  0  0  0  0  0  0  0  0  0  0  0
  -88.8472   28.1670   -2.4680 C   0  0  0  0  0  0  0  0  0  0  0  0
  -87.4031   30.7066   -0.4845 C   0  0  0  0  0  0  0  0  0  0  0  0
  -86.5660   31.9148   -0.6240 C   0  0  0  0  0  0  0  0  0  0  0  0
  -86.9015   33.1260   -1.1679 C   0  0  0  0  0  0  0  0  0  0  0  0
  -85.8498   33.9381   -1.0935 N   0  0  0  0  0  0  0  0  0  0  0  0
  -84.8505   33.2666   -0.5122 C   0  0  0  0  0  0  0  0  0  0  0  0
  -85.2922   32.0355   -0.2287 N   0  0  0  0  0  0  0  0  0  0  0  0
  -84.7165   31.2788    0.2371 H   0  0  0  0  0  0  0  0  0  0  0  0
 10 11  2  0  0  0
 11 12  1  0  0  0
 12 13  2  0  0  0
 13  4  1  0  0  0
  4  5  2  0  0  0
  5  6  1  0  0  0
  6  7  2  0  0  0
  7  3  1  0  0  0
  3  2  1  0  0  0
  2  1  1  0  0  0
  1 16  1  0  0  0
 16 17  1  0  0  0
 17 18  1  0  0  0
 18 19  1  0  0  0
 19 20  1  0  0  0
 20 23  1  0  0  0
 23 24  1  0  0  0
 24 25  2  0  0  0
 25 26  1  0  0  0
 26 27  2  0  0  0
 27 28  1  0  0  0
 20 21  1  0  0  0
 21 22  1  0  0  0
  7  8  1  0  0  0
  8  9  2  0  0  0
 13 14  1  0  0  0
 14 15  2  0  0  0
 15 10  1  0  0  0
  9  4  1  0  0  0
 22 17  1  0  0  0
 28 24  1  0  0  0
 28 29  1  0  0  0
M  END
> <minimizedAffinity>
-7.51313

> <CNNscore>
0.1524058282

> <CNNaffinity>
6.6113905907

> <CNN_VS>
1.0076144934

> <CNNaffinity_variance>
0.1549787819

$$$$
[H]c1nc(-c2c([H])c([H])c(OC([H])([H])C([H])([H])C([H])([H])N3C([H])([H])C([H])([H])C([H])(C([H])([H])c4c([H])nc([H])n4[H])C([H])([H])C3([H])[H])c([H])c2[H])nc([H])c1[H]


 29 32  0  0  0  0  0  0  0  0999 V2000
  -87.4880   32.1935   -3.9486 C   0  0  0  0  0  0  0  0  0  0  0  0
  -88.3330   31.1123   -4.5960 C   0  0  0  0  0  0  0  0  0  0  0  0
  -87.8535   29.8816   -4.1487 O   0  0  0  0  0  0  0  0  0  0  0  0
  -88.8104   28.2533   -0.3695 C   0  0  0  0  0  0  0  0  0  0  0  0
  -89.7103   29.0302   -1.0663 C   0  0  0  0  0  0  0  0  0  0  0  0
  -89.3974   29.5687   -2.3129 C   0  0  0  0  0  0  0  0  0  0  0  0
  -88.1701   29.3419   -2.8966 C   0  0  0  0  0  0  0  0  0  0  0  0
  -87.2735   28.5639   -2.1954 C   0  0  0  0  0  0  0  0  0  0  0  0
  -87.5825   28.0252   -0.9515 C   0  0  0  0  0  0  0  0  0  0  0  0
  -89.7351   26.6098    3.3903 C   0  0  0  0  0  0  0  0  0  0  0  0
  -88.5988   26.2343    2.7081 C   0  0  0  0  0  0  0  0  0  0  0  0
  -88.3412   26.7847    1.5086 N   0  0  0  0  0  0  0  0  0  0  0  0
  -89.1471   27.6941    0.9351 C   0  0  0  0  0  0  0  0  0  0  0  0
  -90.2505   28.0558    1.6025 N   0  0  0  0  0  0  0  0  0  0  0  0
  -90.5668   27.5373    2.8168 C   0  0  0  0  0  0  0  0  0  0  0  0
  -88.3629   32.9687   -2.9898 C   0  0  0  0  0  0  0  0  0  0  0  0
  -87.5980   33.5829   -1.9203 N   0  0  0  0  0  0  0  0  0  0  0  0
  -87.9544   32.8982   -0.6919 C   0  0  0  0  0  0  0  0  0  0  0  0
  -87.0171   31.6977   -0.5092 C   0  0  0  0  0  0  0  0  0  0  0  0
  -85.6890   32.2712   -0.0852 C   0  0  0  0  0  0  0  0  0  0  0  0
  -85.3275   33.3849   -1.0083 C   0  0  0  0  0  0  0  0  0  0  0  0
  -86.1962   33.4207   -2.2438 C   0  0  0  0  0  0  0  0  0  0  0  0
  -84.6175   31.2112    0.0136 C   0  0  0  0  0  0  0  0  0  0  0  0
  -84.8818   30.3912    1.2126 C   0  0  0  0  0  0  0  0  0  0  0  0
  -84.9677   29.0281    1.3110 C   0  0  0  0  0  0  0  0  0  0  0  0
  -85.2198   28.7021    2.5764 N   0  0  0  0  0  0  0  0  0  0  0  0
  -85.2961   29.8327    3.2861 C   0  0  0  0  0  0  0  0  0  0  0  0
  -85.0895   30.8576    2.4507 N   0  0  0  0  0  0  0  0  0  0  0  0
  -85.0916   31.8779    2.7332 H   0  0  0  0  0  0  0  0  0  0  0  0
 10 11  2  0  0  0
 11 12  1  0  0  0
 12 13  2  0  0  0
 13  4  1  0  0  0
  4  5  2  0  0  0
  5  6  1  0  0  0
  6  7  2  0  0  0
  7  3  1  0  0  0
  3  2  1  0  0  0
  2  1  1  0  0  0
  1 16  1  0  0  0
 16 17  1  0  0  0
 17 18  1  0  0  0
 18 19  1  0  0  0
 19 20  1  0  0  0
 20 23  1  0  0  0
 23 24  1  0  0  0
 24 25  2  0  0  0
 25 26  1  0  0  0
 26 27  2  0  0  0
 27 28  1  0  0  0
 20 21  1  0  0  0
 21 22  1  0  0  0
  7  8  1  0  0  0
  8  9  2  0  0  0
 13 14  1  0  0  0
 14 15  2  0  0  0
 15 10  1  0  0  0
  9  4  1  0  0  0
 22 17  1  0  0  0
 28 24  1  0  0  0
 28 29  1  0  0  0
M  END
> <minimizedAffinity>
-7.57094

> <CNNscore>
0.1146018952

> <CNNaffinity>
6.0882081985

> <CNN_VS>
0.6977201700

> <CNNaffinity_variance>
0.9135991931

$$$$
[H]c1nc(-c2c([H])c([H])c(OC([H])([H])C([H])([H])C([H])([H])N3C([H])([H])C([H])([H])C([H])(C([H])([H])c4c([H])nc([H])n4[H])C([H])([H])C3([H])[H])c([H])c2[H])nc([H])c1[H]


 29 32  0  0  0  0  0  0  0  0999 V2000
  -83.0438   32.5796    0.4123 C   0  0  0  0  0  0  0  0  0  0  0  0
  -83.7754   32.9750   -0.8567 C   0  0  0  0  0  0  0  0  0  0  0  0
  -85.0365   33.4407   -0.4857 O   0  0  0  0  0  0  0  0  0  0  0  0
  -88.5390   32.6891   -2.7254 C   0  0  0  0  0  0  0  0  0  0  0  0
  -87.4372   33.2902   -3.2941 C   0  0  0  0  0  0  0  0  0  0  0  0
  -86.2806   33.5394   -2.5578 C   0  0  0  0  0  0  0  0  0  0  0  0
  -86.1972   33.1915   -1.2273 C   0  0  0  0  0  0  0  0  0  0  0  0
  -87.3021   32.5903   -0.6631 C   0  0  0  0  0  0  0  0  0  0  0  0
  -88.4576   32.3402   -1.3949 C   0  0  0  0  0  0  0  0  0  0  0  0
  -92.0166   31.8959   -4.9547 C   0  0  0  0  0  0  0  0  0  0  0  0
  -91.4000   30.9073   -4.2198 C   0  0  0  0  0  0  0  0  0  0  0  0
  -90.2900   31.2041   -3.5213 N   0  0  0  0  0  0  0  0  0  0  0  0
  -89.7455   32.4323   -3.5043 C   0  0  0  0  0  0  0  0  0  0  0  0
  -90.3488   33.3899   -4.2204 N   0  0  0  0  0  0  0  0  0  0  0  0
  -91.4717   33.1545   -4.9464 C   0  0  0  0  0  0  0  0  0  0  0  0
  -83.0589   31.0716    0.5183 C   0  0  0  0  0  0  0  0  0  0  0  0
  -83.6482   30.6129    1.7627 N   0  0  0  0  0  0  0  0  0  0  0  0
  -85.0885   30.6509    1.5934 C   0  0  0  0  0  0  0  0  0  0  0  0
  -85.5510   29.3058    1.0192 C   0  0  0  0  0  0  0  0  0  0  0  0
  -85.4713   28.3212    2.1578 C   0  0  0  0  0  0  0  0  0  0  0  0
  -84.1390   28.4501    2.8148 C   0  0  0  0  0  0  0  0  0  0  0  0
  -83.1658   29.2686    1.9992 C   0  0  0  0  0  0  0  0  0  0  0  0
  -85.7791   26.9110    1.7127 C   0  0  0  0  0  0  0  0  0  0  0  0
  -87.2414   26.7140    1.7655 C   0  0  0  0  0  0  0  0  0  0  0  0
  -88.1690   27.4079    2.4958 C   0  0  0  0  0  0  0  0  0  0  0  0
  -89.3761   26.9044    2.2494 N   0  0  0  0  0  0  0  0  0  0  0  0
  -89.2345   25.9026    1.3754 C   0  0  0  0  0  0  0  0  0  0  0  0
  -87.9329   25.7913    1.0845 N   0  0  0  0  0  0  0  0  0  0  0  0
  -87.5211   25.0800    0.4171 H   0  0  0  0  0  0  0  0  0  0  0  0
 10 11  2  0  0  0
 11 12  1  0  0  0
 12 13  2  0  0  0
 13  4  1  0  0  0
  4  5  2  0  0  0
  5  6  1  0  0  0
  6  7  2  0  0  0
  7  3  1  0  0  0
  3  2  1  0  0  0
  2  1  1  0  0  0
  1 16  1  0  0  0
 16 17  1  0  0  0
 17 18  1  0  0  0
 18 19  1  0  0  0
 19 20  1  0  0  0
 20 23  1  0  0  0
 23 24  1  0  0  0
 24 25  2  0  0  0
 25 26  1  0  0  0
 26 27  2  0  0  0
 27 28  1  0  0  0
 20 21  1  0  0  0
 21 22  1  0  0  0
  7  8  1  0  0  0
  8  9  2  0  0  0
 13 14  1  0  0  0
 14 15  2  0  0  0
 15 10  1  0  0  0
  9  4  1  0  0  0
 22 17  1  0  0  0
 28 24  1  0  0  0
 28 29  1  0  0  0
M  END
> <minimizedAffinity>
-7.96962

> <CNNscore>
0.1137399003

> <CNNaffinity>
5.9426360130

> <CNN_VS>
0.6759148240

> <CNNaffinity_variance>
1.2766597271

$$$$
[H]c1nc(-c2c([H])c([H])c(OC([H])([H])C([H])([H])C([H])([H])N3C([H])([H])C([H])([H])C([H])(C([H])([H])c4c([H])nc([H])n4[H])C([H])([H])C3([H])[H])c([H])c2[H])nc([H])c1[H]


 29 32  0  0  0  0  0  0  0  0999 V2000
  -88.4842   34.3076   -3.1559 C   0  0  0  0  0  0  0  0  0  0  0  0
  -86.9676   34.3203   -3.1146 C   0  0  0  0  0  0  0  0  0  0  0  0
  -86.5854   34.4029   -1.7760 O   0  0  0  0  0  0  0  0  0  0  0  0
  -84.9896   31.1437    0.3873 C   0  0  0  0  0  0  0  0  0  0  0  0
  -86.3413   31.2510    0.1423 C   0  0  0  0  0  0  0  0  0  0  0  0
  -86.8706   32.3250   -0.5709 C   0  0  0  0  0  0  0  0  0  0  0  0
  -86.0562   33.3233   -1.0593 C   0  0  0  0  0  0  0  0  0  0  0  0
  -84.7046   33.2110   -0.8116 C   0  0  0  0  0  0  0  0  0  0  0  0
  -84.1734   32.1409   -0.1004 C   0  0  0  0  0  0  0  0  0  0  0  0
  -83.3688   27.9146    2.5411 C   0  0  0  0  0  0  0  0  0  0  0  0
  -82.5783   28.9644    2.1278 C   0  0  0  0  0  0  0  0  0  0  0  0
  -83.1373   29.9765    1.4416 N   0  0  0  0  0  0  0  0  0  0  0  0
  -84.4449   30.0156    1.1351 C   0  0  0  0  0  0  0  0  0  0  0  0
  -85.2091   28.9927    1.5392 N   0  0  0  0  0  0  0  0  0  0  0  0
  -84.7056   27.9414    2.2353 C   0  0  0  0  0  0  0  0  0  0  0  0
  -88.9176   33.7561   -4.4952 C   0  0  0  0  0  0  0  0  0  0  0  0
  -89.6510   32.5104   -4.3665 N   0  0  0  0  0  0  0  0  0  0  0  0
  -88.9744   31.5284   -5.1926 C   0  0  0  0  0  0  0  0  0  0  0  0
  -87.8938   30.8388   -4.3501 C   0  0  0  0  0  0  0  0  0  0  0  0
  -88.6272   29.9042   -3.4222 C   0  0  0  0  0  0  0  0  0  0  0  0
  -89.7412   30.6491   -2.7686 C   0  0  0  0  0  0  0  0  0  0  0  0
  -89.6358   32.1432   -2.9662 C   0  0  0  0  0  0  0  0  0  0  0  0
  -87.6983   29.2393   -2.4340 C   0  0  0  0  0  0  0  0  0  0  0  0
  -88.3947   28.0763   -1.8491 C   0  0  0  0  0  0  0  0  0  0  0  0
  -88.5703   27.7642   -0.5273 C   0  0  0  0  0  0  0  0  0  0  0  0
  -89.2560   26.6269   -0.4402 N   0  0  0  0  0  0  0  0  0  0  0  0
  -89.5206   26.2088   -1.6822 C   0  0  0  0  0  0  0  0  0  0  0  0
  -88.9939   27.0949   -2.5357 N   0  0  0  0  0  0  0  0  0  0  0  0
  -89.0472   27.0239   -3.5907 H   0  0  0  0  0  0  0  0  0  0  0  0
 10 11  2  0  0  0
 11 12  1  0  0  0
 12 13  2  0  0  0
 13  4  1  0  0  0
  4  5  2  0  0  0
  5  6  1  0  0  0
  6  7  2  0  0  0
  7  3  1  0  0  0
  3  2  1  0  0  0
  2  1  1  0  0  0
  1 16  1  0  0  0
 16 17  1  0  0  0
 17 18  1  0  0  0
 18 19  1  0  0  0
 19 20  1  0  0  0
 20 23  1  0  0  0
 23 24  1  0  0  0
 24 25  2  0  0  0
 25 26  1  0  0  0
 26 27  2  0  0  0
 27 28  1  0  0  0
 20 21  1  0  0  0
 21 22  1  0  0  0
  7  8  1  0  0  0
  8  9  2  0  0  0
 13 14  1  0  0  0
 14 15  2  0  0  0
 15 10  1  0  0  0
  9  4  1  0  0  0
 22 17  1  0  0  0
 28 24  1  0  0  0
 28 29  1  0  0  0
M  END
> <minimizedAffinity>
-8.06902

> <CNNscore>
0.0906591490

> <CNNaffinity>
5.9719729424

> <CNN_VS>
0.5414139628

> <CNNaffinity_variance>
0.8527243733

$$$$
[H]c1nc(-c2c([H])c([H])c(OC([H])([H])C([H])([H])C([H])([H])N3C([H])([H])C([H])([H])C([H])(C([H])([H])c4c([H])nc([H])n4[H])C([H])([H])C3([H])[H])c([H])c2[H])nc([H])c1[H]


 29 32  0  0  0  0  0  0  0  0999 V2000
  -92.2250   30.6040   -4.2359 C   0  0  0  0  0  0  0  0  0  0  0  0
  -90.8372   31.1924   -4.0631 C   0  0  0  0  0  0  0  0  0  0  0  0
  -90.6992   31.5546   -2.7236 O   0  0  0  0  0  0  0  0  0  0  0  0
  -86.9825   31.6595   -0.7176 C   0  0  0  0  0  0  0  0  0  0  0  0
  -87.7521   32.7930   -0.8648 C   0  0  0  0  0  0  0  0  0  0  0  0
  -88.9784   32.7614   -1.5261 C   0  0  0  0  0  0  0  0  0  0  0  0
  -89.4677   31.5889   -2.0591 C   0  0  0  0  0  0  0  0  0  0  0  0
  -88.6939   30.4577   -1.9089 C   0  0  0  0  0  0  0  0  0  0  0  0
  -87.4700   30.4858   -1.2498 C   0  0  0  0  0  0  0  0  0  0  0  0
  -83.3045   31.7489    1.3212 C   0  0  0  0  0  0  0  0  0  0  0  0
  -84.3607   30.9984    1.7889 C   0  0  0  0  0  0  0  0  0  0  0  0
  -85.5191   30.9983    1.1061 N   0  0  0  0  0  0  0  0  0  0  0  0
  -85.6998   31.7025   -0.0238 C   0  0  0  0  0  0  0  0  0  0  0  0
  -84.6699   32.4305   -0.4743 N   0  0  0  0  0  0  0  0  0  0  0  0
  -83.4749   32.4728    0.1688 C   0  0  0  0  0  0  0  0  0  0  0  0
  -92.0982   29.0986   -4.2936 C   0  0  0  0  0  0  0  0  0  0  0  0
  -92.1533   28.4904   -2.9771 N   0  0  0  0  0  0  0  0  0  0  0  0
  -93.3906   27.7364   -2.9058 C   0  0  0  0  0  0  0  0  0  0  0  0
  -93.1294   26.3145   -3.4188 C   0  0  0  0  0  0  0  0  0  0  0  0
  -92.3615   25.6156   -2.3259 C   0  0  0  0  0  0  0  0  0  0  0  0
  -91.2320   26.4886   -1.8957 C   0  0  0  0  0  0  0  0  0  0  0  0
  -90.9908   27.6375   -2.8465 C   0  0  0  0  0  0  0  0  0  0  0  0
  -91.9180   24.2319   -2.7382 C   0  0  0  0  0  0  0  0  0  0  0  0
  -91.2782   23.5819   -1.5772 C   0  0  0  0  0  0  0  0  0  0  0  0
  -89.9731   23.1943   -1.4296 C   0  0  0  0  0  0  0  0  0  0  0  0
  -89.8193   22.6475   -0.2261 N   0  0  0  0  0  0  0  0  0  0  0  0
  -91.0023   22.6798    0.3958 C   0  0  0  0  0  0  0  0  0  0  0  0
  -91.8867   23.2496   -0.4314 N   0  0  0  0  0  0  0  0  0  0  0  0
  -92.9088   23.4096   -0.2069 H   0  0  0  0  0  0  0  0  0  0  0  0
 10 11  2  0  0  0
 11 12  1  0  0  0
 12 13  2  0  0  0
 13  4  1  0  0  0
  4  5  2  0  0  0
  5  6  1  0  0  0
  6  7  2  0  0  0
  7  3  1  0  0  0
  3  2  1  0  0  0
  2  1  1  0  0  0
  1 16  1  0  0  0
 16 17  1  0  0  0
 17 18  1  0  0  0
 18 19  1  0  0  0
 19 20  1  0  0  0
 20 23  1  0  0  0
 23 24  1  0  0  0
 24 25  2  0  0  0
 25 26  1  0  0  0
 26 27  2  0  0  0
 27 28  1  0  0  0
 20 21  1  0  0  0
 21 22  1  0  0  0
  7  8  1  0  0  0
  8  9  2  0  0  0
 13 14  1  0  0  0
 14 15  2  0  0  0
 15 10  1  0  0  0
  9  4  1  0  0  0
 22 17  1  0  0  0
 28 24  1  0  0  0
 28 29  1  0  0  0
M  END
> <minimizedAffinity>
-6.26997

> <CNNscore>
0.0805821940

> <CNNaffinity>
5.6585912704

> <CNN_VS>
0.4559817016

> <CNNaffinity_variance>
0.0968666822

$$$$
[H]c1nc(-c2c([H])c([H])c(OC([H])([H])C([H])([H])C([H])([H])N3C([H])([H])C([H])([H])C([H])(C([H])([H])c4c([H])nc([H])n4[H])C([H])([H])C3([H])[H])c([H])c2[H])nc([H])c1[H]


 29 32  0  0  0  0  0  0  0  0999 V2000
  -90.4707   30.4949   -3.5592 C   0  0  0  0  0  0  0  0  0  0  0  0
  -91.7821   30.4843   -2.7962 C   0  0  0  0  0  0  0  0  0  0  0  0
  -92.0290   29.1687   -2.4052 O   0  0  0  0  0  0  0  0  0  0  0  0
  -90.9089   27.6161    1.3609 C   0  0  0  0  0  0  0  0  0  0  0  0
  -91.2942   26.7891    0.3282 C   0  0  0  0  0  0  0  0  0  0  0  0
  -91.6642   27.2984   -0.9151 C   0  0  0  0  0  0  0  0  0  0  0  0
  -91.6578   28.6548   -1.1572 C   0  0  0  0  0  0  0  0  0  0  0  0
  -91.2714   29.4777   -0.1207 C   0  0  0  0  0  0  0  0  0  0  0  0
  -90.9017   28.9728    1.1208 C   0  0  0  0  0  0  0  0  0  0  0  0
  -89.7880   26.0023    5.0801 C   0  0  0  0  0  0  0  0  0  0  0  0
  -89.7853   25.2313    3.9385 C   0  0  0  0  0  0  0  0  0  0  0  0
  -90.1508   25.7873    2.7701 N   0  0  0  0  0  0  0  0  0  0  0  0
  -90.5233   27.0735    2.6591 C   0  0  0  0  0  0  0  0  0  0  0  0
  -90.5242   27.8188    3.7719 N   0  0  0  0  0  0  0  0  0  0  0  0
  -90.1659   27.3171    4.9816 C   0  0  0  0  0  0  0  0  0  0  0  0
  -89.4880   31.3585   -2.8016 C   0  0  0  0  0  0  0  0  0  0  0  0
  -88.1655   30.7641   -2.7405 N   0  0  0  0  0  0  0  0  0  0  0  0
  -87.4584   31.4054   -1.6481 C   0  0  0  0  0  0  0  0  0  0  0  0
  -87.7367   30.6245   -0.3574 C   0  0  0  0  0  0  0  0  0  0  0  0
  -86.9237   29.3590   -0.4567 C   0  0  0  0  0  0  0  0  0  0  0  0
  -87.1627   28.7352   -1.7897 C   0  0  0  0  0  0  0  0  0  0  0  0
  -88.3402   29.3449   -2.5138 C   0  0  0  0  0  0  0  0  0  0  0  0
  -87.1920   28.4189    0.6947 C   0  0  0  0  0  0  0  0  0  0  0  0
  -85.9200   28.1739    1.4030 C   0  0  0  0  0  0  0  0  0  0  0  0
  -85.4788   27.0165    1.9869 C   0  0  0  0  0  0  0  0  0  0  0  0
  -84.2765   27.2314    2.5155 N   0  0  0  0  0  0  0  0  0  0  0  0
  -83.9436   28.5044    2.2790 C   0  0  0  0  0  0  0  0  0  0  0  0
  -84.9478   29.0733    1.6014 N   0  0  0  0  0  0  0  0  0  0  0  0
  -84.9634   30.0806    1.2758 H   0  0  0  0  0  0  0  0  0  0  0  0
 10 11  2  0  0  0
 11 12  1  0  0  0
 12 13  2  0  0  0
 13  4  1  0  0  0
  4  5  2  0  0  0
  5  6  1  0  0  0
  6  7  2  0  0  0
  7  3  1  0  0  0
  3  2  1  0  0  0
  2  1  1  0  0  0
  1 16  1  0  0  0
 16 17  1  0  0  0
 17 18  1  0  0  0
 18 19  1  0  0  0
 19 20  1  0  0  0
 20 23  1  0  0  0
 23 24  1  0  0  0
 24 25  2  0  0  0
 25 26  1  0  0  0
 26 27  2  0  0  0
 27 28  1  0  0  0
 20 21  1  0  0  0
 21 22  1  0  0  0
  7  8  1  0  0  0
  8  9  2  0  0  0
 13 14  1  0  0  0
 14 15  2  0  0  0
 15 10  1  0  0  0
  9  4  1  0  0  0
 22 17  1  0  0  0
 28 24  1  0  0  0
 28 29  1  0  0  0
M  END
> <minimizedAffinity>
-7.07332

> <CNNscore>
0.0751907825

> <CNNaffinity>
5.8133592606

> <CNN_VS>
0.4371110201

> <CNNaffinity_variance>
0.8464740515

$$$$
[H]c1nc(-c2c([H])c([H])c(OC([H])([H])C([H])([H])C([H])([H])N3C([H])([H])C([H])([H])C([H])(C([H])([H])c4c([H])nc([H])n4[H])C([H])([H])C3([H])[H])c([H])c2[H])nc([H])c1[H]


 29 32  0  0  0  0  0  0  0  0999 V2000
  -90.2225   29.0057   -2.4130 C   0  0  0  0  0  0  0  0  0  0  0  0
  -90.8255   30.2748   -2.9857 C   0  0  0  0  0  0  0  0  0  0  0  0
  -90.1725   30.5435   -4.1882 O   0  0  0  0  0  0  0  0  0  0  0  0
  -88.3132   34.2394   -5.0445 C   0  0  0  0  0  0  0  0  0  0  0  0
  -89.6132   33.9838   -5.4233 C   0  0  0  0  0  0  0  0  0  0  0  0
  -90.2291   32.7657   -5.1423 C   0  0  0  0  0  0  0  0  0  0  0  0
  -89.5560   31.7679   -4.4717 C   0  0  0  0  0  0  0  0  0  0  0  0
  -88.2557   32.0286   -4.0948 C   0  0  0  0  0  0  0  0  0  0  0  0
  -87.6384   33.2428   -4.3737 C   0  0  0  0  0  0  0  0  0  0  0  0
  -86.4700   37.9331   -5.8518 C   0  0  0  0  0  0  0  0  0  0  0  0
  -86.5972   37.4666   -4.5618 C   0  0  0  0  0  0  0  0  0  0  0  0
  -87.1932   36.2804   -4.3485 N   0  0  0  0  0  0  0  0  0  0  0  0
  -87.6770   35.5177   -5.3433 C   0  0  0  0  0  0  0  0  0  0  0  0
  -87.5509   35.9757   -6.5955 N   0  0  0  0  0  0  0  0  0  0  0  0
  -86.9594   37.1649   -6.8772 C   0  0  0  0  0  0  0  0  0  0  0  0
  -88.9081   29.3599   -1.7552 C   0  0  0  0  0  0  0  0  0  0  0  0
  -88.2707   28.2086   -1.1434 N   0  0  0  0  0  0  0  0  0  0  0  0
  -86.8395   28.3686   -1.3187 C   0  0  0  0  0  0  0  0  0  0  0  0
  -86.2840   29.1578   -0.1264 C   0  0  0  0  0  0  0  0  0  0  0  0
  -86.2754   28.1983    1.0362 C   0  0  0  0  0  0  0  0  0  0  0  0
  -87.6055   27.5297    1.1198 C   0  0  0  0  0  0  0  0  0  0  0  0
  -88.6475   28.1986    0.2544 C   0  0  0  0  0  0  0  0  0  0  0  0
  -85.8677   28.8711    2.3256 C   0  0  0  0  0  0  0  0  0  0  0  0
  -84.7669   29.8106    2.0336 C   0  0  0  0  0  0  0  0  0  0  0  0
  -84.7563   31.1747    2.1532 C   0  0  0  0  0  0  0  0  0  0  0  0
  -83.5613   31.6306    1.7853 N   0  0  0  0  0  0  0  0  0  0  0  0
  -82.8103   30.5818    1.4335 C   0  0  0  0  0  0  0  0  0  0  0  0
  -83.5494   29.4767    1.5867 N   0  0  0  0  0  0  0  0  0  0  0  0
  -83.2153   28.4928    1.3835 H   0  0  0  0  0  0  0  0  0  0  0  0
 10 11  2  0  0  0
 11 12  1  0  0  0
 12 13  2  0  0  0
 13  4  1  0  0  0
  4  5  2  0  0  0
  5  6  1  0  0  0
  6  7  2  0  0  0
  7  3  1  0  0  0
  3  2  1  0  0  0
  2  1  1  0  0  0
  1 16  1  0  0  0
 16 17  1  0  0  0
 17 18  1  0  0  0
 18 19  1  0  0  0
 19 20  1  0  0  0
 20 23  1  0  0  0
 23 24  1  0  0  0
 24 25  2  0  0  0
 25 26  1  0  0  0
 26 27  2  0  0  0
 27 28  1  0  0  0
 20 21  1  0  0  0
 21 22  1  0  0  0
  7  8  1  0  0  0
  8  9  2  0  0  0
 13 14  1  0  0  0
 14 15  2  0  0  0
 15 10  1  0  0  0
  9  4  1  0  0  0
 22 17  1  0  0  0
 28 24  1  0  0  0
 28 29  1  0  0  0
M  END
> <minimizedAffinity>
-7.00785

> <CNNscore>
0.0731928647

> <CNNaffinity>
5.9237794876

> <CNN_VS>
0.4335784018

> <CNNaffinity_variance>
0.2917237580

$$$$
[H]OC(=O)[C@]1([H])N([H])[C@@]([H])(C([H])([H])C([H])([H])c2c([H])c([H])c([H])c([H])c2[H])C(=O)N([H])[C@]([H])(C(=O)N([H])C([H])([H])[H])C([H])([H])C([H])([H])C(=O)OC([H])([H])C([H])([H])N([H])C(=O)C([H])([H])C1([H])[H]


 39 40  0  0  0  0  0  0  0  0999 V2000
  -86.6441   27.5414   -1.9101 C   0  0  0  0  0  0  0  0  0  0  0  0
  -87.4048   26.9255   -0.7824 C   0  0  0  0  0  0  0  0  0  0  0  0
  -87.3005   25.4502   -0.6150 C   0  0  0  0  0  0  0  0  0  0  0  0
  -88.6523   24.8746   -0.2710 C   0  0  0  0  0  0  0  0  0  0  0  0
  -89.3197   24.3897   -1.2476 O   0  0  0  0  0  0  0  0  0  0  0  0
  -89.1750   24.8496    0.9893 O   0  0  0  0  0  0  0  0  0  0  0  0
  -89.3119   25.8732    1.9112 C   0  0  0  0  0  0  0  0  0  0  0  0
  -90.6679   26.5782    1.8686 C   0  0  0  0  0  0  0  0  0  0  0  0
  -90.5338   27.8492    2.5252 N   0  0  0  0  0  0  0  0  0  0  0  0
  -91.2897   29.0165    2.2768 C   0  0  0  0  0  0  0  0  0  0  0  0
  -91.7740   29.6945    3.2482 O   0  0  0  0  0  0  0  0  0  0  0  0
  -91.5884   29.5556    0.9147 C   0  0  0  0  0  0  0  0  0  0  0  0
  -90.4179   29.4311   -0.0049 C   0  0  0  0  0  0  0  0  0  0  0  0
  -89.4642   30.6069   -0.0054 C   0  0  0  0  0  0  0  0  0  0  0  0
  -88.4399   30.3468   -0.9747 N   0  0  0  0  0  0  0  0  0  0  0  0
  -88.7566   30.2185   -2.3286 C   0  0  0  0  0  0  0  0  0  0  0  0
  -88.6070   28.8652   -2.9326 C   0  0  0  0  0  0  0  0  0  0  0  0
  -89.6665   28.4135   -3.4946 O   0  0  0  0  0  0  0  0  0  0  0  0
  -87.5018   28.0345   -2.9775 N   0  0  0  0  0  0  0  0  0  0  0  0
  -89.7926   27.9294    3.2813 H   0  0  0  0  0  0  0  0  0  0  0  0
  -87.5710   30.7906   -0.6864 H   0  0  0  0  0  0  0  0  0  0  0  0
  -87.2017   27.6767   -3.9459 H   0  0  0  0  0  0  0  0  0  0  0  0
  -83.4372   26.3061   -3.6169 C   0  0  0  0  0  0  0  0  0  0  0  0
  -84.4922   27.1567   -3.1273 N   0  0  0  0  0  0  0  0  0  0  0  0
  -85.5786   26.6508   -2.3997 C   0  0  0  0  0  0  0  0  0  0  0  0
  -85.6402   25.4327   -2.1668 O   0  0  0  0  0  0  0  0  0  0  0  0
  -84.4444   28.1786   -3.3217 H   0  0  0  0  0  0  0  0  0  0  0  0
  -90.1449   31.8960   -0.1037 C   0  0  0  0  0  0  0  0  0  0  0  0
  -90.1488   32.8112    0.7512 O   0  0  0  0  0  0  0  0  0  0  0  0
  -90.8762   32.1333   -1.2822 O   0  0  0  0  0  0  0  0  0  0  0  0
  -91.8669   31.9408   -1.2186 H   0  0  0  0  0  0  0  0  0  0  0  0
  -88.0588   31.2516   -3.2209 C   0  0  0  0  0  0  0  0  0  0  0  0
  -88.6753   31.3139   -4.5766 C   0  0  0  0  0  0  0  0  0  0  0  0
  -89.3641   32.6224   -4.8127 C   0  0  0  0  0  0  0  0  0  0  0  0
  -88.6924   33.7966   -4.9642 C   0  0  0  0  0  0  0  0  0  0  0  0
  -89.4442   34.9451   -5.1814 C   0  0  0  0  0  0  0  0  0  0  0  0
  -90.8240   34.9189   -5.2449 C   0  0  0  0  0  0  0  0  0  0  0  0
  -91.4895   33.7253   -5.0900 C   0  0  0  0  0  0  0  0  0  0  0  0
  -90.7392   32.5925   -4.8753 C   0  0  0  0  0  0  0  0  0  0  0  0
 23 24  1  0  0  0
 24 25  1  0  0  0
 25 26  2  0  0  0
 25  1  1  0  0  0
  1  2  1  0  0  0
  2  3  1  0  0  0
  3  4  1  0  0  0
  4  5  2  0  0  0
  4  6  1  0  0  0
  6  7  1  0  0  0
  7  8  1  0  0  0
  8  9  1  0  0  0
  9 10  1  0  0  0
 10 11  2  0  0  0
 10 12  1  0  0  0
 12 13  1  0  0  0
 13 14  1  0  0  0
 14 28  1  0  0  0
 28 29  2  0  0  0
 28 30  1  0  0  0
 14 15  1  0  0  0
 15 16  1  0  0  0
 16 32  1  0  0  0
 32 33  1  0  0  0
 33 34  1  0  0  0
 34 35  2  0  0  0
 35 36  1  0  0  0
 36 37  2  0  0  0
 37 38  1  0  0  0
 38 39  2  0  0  0
 16 17  1  0  0  0
 17 18  2  0  0  0
 17 19  1  0  0  0
 19  1  1  0  0  0
 39 34  1  0  0  0
 24 27  1  0  0  0
  9 20  1  0  0  0
 30 31  1  0  0  0
 15 21  1  0  0  0
 19 22  1  0  0  0
M  END
> <minimizedAffinity>
17.04533

> <CNNscore>
0.2153314203

> <CNNaffinity>
5.1779413223

> <CNN_VS>
1.1149734259

> <CNNaffinity_variance>
0.6369770765

$$$$
[H]OC(=O)[C@]1([H])N([H])[C@@]([H])(C([H])([H])C([H])([H])c2c([H])c([H])c([H])c([H])c2[H])C(=O)N([H])[C@]([H])(C(=O)N([H])C([H])([H])[H])C([H])([H])C([H])([H])C(=O)OC([H])([H])C([H])([H])N([H])C(=O)C([H])([H])C1([H])[H]


 39 40  0  0  0  0  0  0  0  0999 V2000
  -89.1097   30.7198   -1.5648 C   0  0  0  0  0  0  0  0  0  0  0  0
  -90.3980   31.0541   -2.2418 C   0  0  0  0  0  0  0  0  0  0  0  0
  -91.3713   29.9457   -2.4406 C   0  0  0  0  0  0  0  0  0  0  0  0
  -91.9994   30.0519   -3.8085 C   0  0  0  0  0  0  0  0  0  0  0  0
  -91.4795   29.3239   -4.7218 O   0  0  0  0  0  0  0  0  0  0  0  0
  -93.0584   30.8604   -4.1034 O   0  0  0  0  0  0  0  0  0  0  0  0
  -93.2387   32.2098   -3.8524 C   0  0  0  0  0  0  0  0  0  0  0  0
  -92.8221   33.1232   -5.0055 C   0  0  0  0  0  0  0  0  0  0  0  0
  -92.6399   34.4497   -4.4840 N   0  0  0  0  0  0  0  0  0  0  0  0
  -91.7835   35.4512   -4.9930 C   0  0  0  0  0  0  0  0  0  0  0  0
  -92.2053   36.6501   -5.1438 O   0  0  0  0  0  0  0  0  0  0  0  0
  -90.3601   35.2239   -5.3900 C   0  0  0  0  0  0  0  0  0  0  0  0
  -89.6576   34.3011   -4.4487 C   0  0  0  0  0  0  0  0  0  0  0  0
  -88.9772   34.9679   -3.2719 C   0  0  0  0  0  0  0  0  0  0  0  0
  -88.3127   33.9513   -2.5095 N   0  0  0  0  0  0  0  0  0  0  0  0
  -87.2751   33.2041   -3.0704 C   0  0  0  0  0  0  0  0  0  0  0  0
  -87.5434   31.7621   -3.3289 C   0  0  0  0  0  0  0  0  0  0  0  0
  -87.3513   31.3942   -4.5414 O   0  0  0  0  0  0  0  0  0  0  0  0
  -87.9627   30.7713   -2.4592 N   0  0  0  0  0  0  0  0  0  0  0  0
  -93.2069   34.7167   -3.6268 H   0  0  0  0  0  0  0  0  0  0  0  0
  -88.2865   34.2176   -1.5279 H   0  0  0  0  0  0  0  0  0  0  0  0
  -87.3642   29.8793   -2.4137 H   0  0  0  0  0  0  0  0  0  0  0  0
  -88.7296   27.0158   -0.6379 C   0  0  0  0  0  0  0  0  0  0  0  0
  -88.6569   28.2688   -1.3456 N   0  0  0  0  0  0  0  0  0  0  0  0
  -89.1972   29.4517   -0.8216 C   0  0  0  0  0  0  0  0  0  0  0  0
  -89.7577   29.4258    0.2860 O   0  0  0  0  0  0  0  0  0  0  0  0
  -88.1886   28.2940   -2.2753 H   0  0  0  0  0  0  0  0  0  0  0  0
  -88.1742   36.1265   -3.6564 C   0  0  0  0  0  0  0  0  0  0  0  0
  -87.1217   36.1198   -4.3349 O   0  0  0  0  0  0  0  0  0  0  0  0
  -88.6299   37.3824   -3.2150 O   0  0  0  0  0  0  0  0  0  0  0  0
  -88.1943   37.7240   -2.3688 H   0  0  0  0  0  0  0  0  0  0  0  0
  -85.9447   33.3458   -2.3217 C   0  0  0  0  0  0  0  0  0  0  0  0
  -86.1351   33.2842   -0.8446 C   0  0  0  0  0  0  0  0  0  0  0  0
  -85.1704   32.3374   -0.2003 C   0  0  0  0  0  0  0  0  0  0  0  0
  -85.5642   31.2165    0.4642 C   0  0  0  0  0  0  0  0  0  0  0  0
  -84.5734   30.4144    1.0176 C   0  0  0  0  0  0  0  0  0  0  0  0
  -83.2315   30.7246    0.9093 C   0  0  0  0  0  0  0  0  0  0  0  0
  -82.8480   31.8604    0.2351 C   0  0  0  0  0  0  0  0  0  0  0  0
  -83.8340   32.6497   -0.3101 C   0  0  0  0  0  0  0  0  0  0  0  0
 23 24  1  0  0  0
 24 25  1  0  0  0
 25 26  2  0  0  0
 25  1  1  0  0  0
  1  2  1  0  0  0
  2  3  1  0  0  0
  3  4  1  0  0  0
  4  5  2  0  0  0
  4  6  1  0  0  0
  6  7  1  0  0  0
  7  8  1  0  0  0
  8  9  1  0  0  0
  9 10  1  0  0  0
 10 11  2  0  0  0
 10 12  1  0  0  0
 12 13  1  0  0  0
 13 14  1  0  0  0
 14 28  1  0  0  0
 28 29  2  0  0  0
 28 30  1  0  0  0
 14 15  1  0  0  0
 15 16  1  0  0  0
 16 32  1  0  0  0
 32 33  1  0  0  0
 33 34  1  0  0  0
 34 35  2  0  0  0
 35 36  1  0  0  0
 36 37  2  0  0  0
 37 38  1  0  0  0
 38 39  2  0  0  0
 16 17  1  0  0  0
 17 18  2  0  0  0
 17 19  1  0  0  0
 19  1  1  0  0  0
 39 34  1  0  0  0
 24 27  1  0  0  0
  9 20  1  0  0  0
 30 31  1  0  0  0
 15 21  1  0  0  0
 19 22  1  0  0  0
M  END
> <minimizedAffinity>
-9.18667

> <CNNscore>
0.1675235033

> <CNNaffinity>
5.7276601791

> <CNN_VS>
0.9595177174

> <CNNaffinity_variance>
0.2435904294

$$$$
[H]OC(=O)[C@]1([H])N([H])[C@@]([H])(C([H])([H])C([H])([H])c2c([H])c([H])c([H])c([H])c2[H])C(=O)N([H])[C@]([H])(C(=O)N([H])C([H])([H])[H])C([H])([H])C([H])([H])C(=O)OC([H])([H])C([H])([H])N([H])C(=O)C([H])([H])C1([H])[H]


 39 40  0  0  0  0  0  0  0  0999 V2000
  -89.8367   28.5002   -2.4463 C   0  0  0  0  0  0  0  0  0  0  0  0
  -90.9503   27.8509   -3.2001 C   0  0  0  0  0  0  0  0  0  0  0  0
  -91.8760   28.7423   -3.9508 C   0  0  0  0  0  0  0  0  0  0  0  0
  -93.2974   28.2629   -3.7872 C   0  0  0  0  0  0  0  0  0  0  0  0
  -93.9862   28.8496   -2.8840 O   0  0  0  0  0  0  0  0  0  0  0  0
  -93.8599   27.2678   -4.5326 O   0  0  0  0  0  0  0  0  0  0  0  0
  -93.3978   25.9895   -4.7952 C   0  0  0  0  0  0  0  0  0  0  0  0
  -93.9212   24.9235   -3.8323 C   0  0  0  0  0  0  0  0  0  0  0  0
  -93.0613   23.7759   -3.9227 N   0  0  0  0  0  0  0  0  0  0  0  0
  -92.8095   22.8226   -2.9110 C   0  0  0  0  0  0  0  0  0  0  0  0
  -92.8391   21.5711   -3.1772 O   0  0  0  0  0  0  0  0  0  0  0  0
  -92.4965   23.1624   -1.4891 C   0  0  0  0  0  0  0  0  0  0  0  0
  -91.6004   24.3527   -1.3829 C   0  0  0  0  0  0  0  0  0  0  0  0
  -90.1166   24.0518   -1.3917 C   0  0  0  0  0  0  0  0  0  0  0  0
  -89.4120   25.2900   -1.2279 N   0  0  0  0  0  0  0  0  0  0  0  0
  -89.5571   26.0432   -0.0611 C   0  0  0  0  0  0  0  0  0  0  0  0
  -90.2698   27.3455   -0.1813 C   0  0  0  0  0  0  0  0  0  0  0  0
  -91.2779   27.4742    0.5995 O   0  0  0  0  0  0  0  0  0  0  0  0
  -90.0033   28.4264   -1.0024 N   0  0  0  0  0  0  0  0  0  0  0  0
  -92.5593   23.6166   -4.8447 H   0  0  0  0  0  0  0  0  0  0  0  0
  -88.5145   25.2421   -1.7044 H   0  0  0  0  0  0  0  0  0  0  0  0
  -89.8966   29.3842   -0.5258 H   0  0  0  0  0  0  0  0  0  0  0  0
  -89.8742   32.3293   -2.6904 C   0  0  0  0  0  0  0  0  0  0  0  0
  -90.1090   30.9793   -2.2450 N   0  0  0  0  0  0  0  0  0  0  0  0
  -89.5824   29.8703   -2.9221 C   0  0  0  0  0  0  0  0  0  0  0  0
  -88.8917   30.0497   -3.9383 O   0  0  0  0  0  0  0  0  0  0  0  0
  -90.6885   30.8249   -1.3938 H   0  0  0  0  0  0  0  0  0  0  0  0
  -89.7476   22.9652   -0.4874 C   0  0  0  0  0  0  0  0  0  0  0  0
  -89.2396   21.8647   -0.8025 O   0  0  0  0  0  0  0  0  0  0  0  0
  -89.9917   23.1760    0.8823 O   0  0  0  0  0  0  0  0  0  0  0  0
  -90.8570   22.7843    1.2293 H   0  0  0  0  0  0  0  0  0  0  0  0
  -88.2425   26.2531    0.6993 C   0  0  0  0  0  0  0  0  0  0  0  0
  -88.3452   27.3731    1.6775 C   0  0  0  0  0  0  0  0  0  0  0  0
  -88.9230   26.9185    2.9820 C   0  0  0  0  0  0  0  0  0  0  0  0
  -88.8663   25.6267    3.4075 C   0  0  0  0  0  0  0  0  0  0  0  0
  -89.4365   25.3289    4.6394 C   0  0  0  0  0  0  0  0  0  0  0  0
  -90.0441   26.2932    5.4201 C   0  0  0  0  0  0  0  0  0  0  0  0
  -90.0941   27.5945    4.9776 C   0  0  0  0  0  0  0  0  0  0  0  0
  -89.5277   27.8822    3.7574 C   0  0  0  0  0  0  0  0  0  0  0  0
 23 24  1  0  0  0
 24 25  1  0  0  0
 25 26  2  0  0  0
 25  1  1  0  0  0
  1  2  1  0  0  0
  2  3  1  0  0  0
  3  4  1  0  0  0
  4  5  2  0  0  0
  4  6  1  0  0  0
  6  7  1  0  0  0
  7  8  1  0  0  0
  8  9  1  0  0  0
  9 10  1  0  0  0
 10 11  2  0  0  0
 10 12  1  0  0  0
 12 13  1  0  0  0
 13 14  1  0  0  0
 14 28  1  0  0  0
 28 29  2  0  0  0
 28 30  1  0  0  0
 14 15  1  0  0  0
 15 16  1  0  0  0
 16 32  1  0  0  0
 32 33  1  0  0  0
 33 34  1  0  0  0
 34 35  2  0  0  0
 35 36  1  0  0  0
 36 37  2  0  0  0
 37 38  1  0  0  0
 38 39  2  0  0  0
 16 17  1  0  0  0
 17 18  2  0  0  0
 17 19  1  0  0  0
 19  1  1  0  0  0
 39 34  1  0  0  0
 24 27  1  0  0  0
  9 20  1  0  0  0
 30 31  1  0  0  0
 15 21  1  0  0  0
 19 22  1  0  0  0
M  END
> <minimizedAffinity>
-8.00970

> <CNNscore>
0.1384520531

> <CNNaffinity>
5.4576935768

> <CNN_VS>
0.7556288838

> <CNNaffinity_variance>
0.2256181538

$$$$
[H]OC(=O)[C@]1([H])N([H])[C@@]([H])(C([H])([H])C([H])([H])c2c([H])c([H])c([H])c([H])c2[H])C(=O)N([H])[C@]([H])(C(=O)N([H])C([H])([H])[H])C([H])([H])C([H])([H])C(=O)OC([H])([H])C([H])([H])N([H])C(=O)C([H])([H])C1([H])[H]


 39 40  0  0  0  0  0  0  0  0999 V2000
  -88.5643   29.6019   -1.3939 C   0  0  0  0  0  0  0  0  0  0  0  0
  -89.9656   29.3163   -1.8233 C   0  0  0  0  0  0  0  0  0  0  0  0
  -90.4423   27.9114   -1.7039 C   0  0  0  0  0  0  0  0  0  0  0  0
  -91.2583   27.5400   -2.9177 C   0  0  0  0  0  0  0  0  0  0  0  0
  -90.6368   26.9074   -3.8385 O   0  0  0  0  0  0  0  0  0  0  0  0
  -92.5811   27.8383   -3.0709 O   0  0  0  0  0  0  0  0  0  0  0  0
  -93.2378   29.0485   -2.9281 C   0  0  0  0  0  0  0  0  0  0  0  0
  -93.3914   29.8360   -4.2295 C   0  0  0  0  0  0  0  0  0  0  0  0
  -93.6700   31.2055   -3.8953 N   0  0  0  0  0  0  0  0  0  0  0  0
  -93.3630   32.3469   -4.6688 C   0  0  0  0  0  0  0  0  0  0  0  0
  -94.2397   33.2611   -4.8523 O   0  0  0  0  0  0  0  0  0  0  0  0
  -92.0416   32.5934   -5.3235 C   0  0  0  0  0  0  0  0  0  0  0  0
  -90.9007   32.1720   -4.4563 C   0  0  0  0  0  0  0  0  0  0  0  0
  -90.3700   33.2355   -3.5185 C   0  0  0  0  0  0  0  0  0  0  0  0
  -89.2535   32.6833   -2.8081 N   0  0  0  0  0  0  0  0  0  0  0  0
  -88.1020   32.2846   -3.4900 C   0  0  0  0  0  0  0  0  0  0  0  0
  -87.8168   30.8236   -3.5386 C   0  0  0  0  0  0  0  0  0  0  0  0
  -87.6790   30.3476   -4.7205 O   0  0  0  0  0  0  0  0  0  0  0  0
  -87.6776   29.9152   -2.5046 N   0  0  0  0  0  0  0  0  0  0  0  0
  -94.1613   31.3898   -2.9721 H   0  0  0  0  0  0  0  0  0  0  0  0
  -89.1878   33.1067   -1.8854 H   0  0  0  0  0  0  0  0  0  0  0  0
  -86.7771   29.3281   -2.4913 H   0  0  0  0  0  0  0  0  0  0  0  0
  -87.8789   27.4477    1.7065 C   0  0  0  0  0  0  0  0  0  0  0  0
  -88.3842   28.4766    0.8337 N   0  0  0  0  0  0  0  0  0  0  0  0
  -88.0339   28.5401   -0.5224 C   0  0  0  0  0  0  0  0  0  0  0  0
  -87.2643   27.6865   -0.9923 O   0  0  0  0  0  0  0  0  0  0  0  0
  -89.0291   29.1948    1.2245 H   0  0  0  0  0  0  0  0  0  0  0  0
  -90.1546   34.5225   -4.1761 C   0  0  0  0  0  0  0  0  0  0  0  0
  -89.3225   34.7764   -5.0767 O   0  0  0  0  0  0  0  0  0  0  0  0
  -90.9659   35.5903   -3.7501 O   0  0  0  0  0  0  0  0  0  0  0  0
  -90.5466   36.1992   -3.0601 H   0  0  0  0  0  0  0  0  0  0  0  0
  -86.8390   33.0330   -3.0480 C   0  0  0  0  0  0  0  0  0  0  0  0
  -86.8804   33.3740   -1.5976 C   0  0  0  0  0  0  0  0  0  0  0  0
  -85.6847   32.8430   -0.8690 C   0  0  0  0  0  0  0  0  0  0  0  0
  -84.4272   33.3297   -1.0552 C   0  0  0  0  0  0  0  0  0  0  0  0
  -83.3988   32.7557   -0.3175 C   0  0  0  0  0  0  0  0  0  0  0  0
  -83.6222   31.7275    0.5778 C   0  0  0  0  0  0  0  0  0  0  0  0
  -84.8980   31.2456    0.7558 C   0  0  0  0  0  0  0  0  0  0  0  0
  -85.9111   31.8184    0.0223 C   0  0  0  0  0  0  0  0  0  0  0  0
 23 24  1  0  0  0
 24 25  1  0  0  0
 25 26  2  0  0  0
 25  1  1  0  0  0
  1  2  1  0  0  0
  2  3  1  0  0  0
  3  4  1  0  0  0
  4  5  2  0  0  0
  4  6  1  0  0  0
  6  7  1  0  0  0
  7  8  1  0  0  0
  8  9  1  0  0  0
  9 10  1  0  0  0
 10 11  2  0  0  0
 10 12  1  0  0  0
 12 13  1  0  0  0
 13 14  1  0  0  0
 14 28  1  0  0  0
 28 29  2  0  0  0
 28 30  1  0  0  0
 14 15  1  0  0  0
 15 16  1  0  0  0
 16 32  1  0  0  0
 32 33  1  0  0  0
 33 34  1  0  0  0
 34 35  2  0  0  0
 35 36  1  0  0  0
 36 37  2  0  0  0
 37 38  1  0  0  0
 38 39  2  0  0  0
 16 17  1  0  0  0
 17 18  2  0  0  0
 17 19  1  0  0  0
 19  1  1  0  0  0
 39 34  1  0  0  0
 24 27  1  0  0  0
  9 20  1  0  0  0
 30 31  1  0  0  0
 15 21  1  0  0  0
 19 22  1  0  0  0
M  END
> <minimizedAffinity>
-8.89191

> <CNNscore>
0.1312479228

> <CNNaffinity>
5.5413708687

> <CNN_VS>
0.7272934318

> <CNNaffinity_variance>
0.2982270420

$$$$
[H]OC(=O)[C@]1([H])N([H])[C@@]([H])(C([H])([H])C([H])([H])c2c([H])c([H])c([H])c([H])c2[H])C(=O)N([H])[C@]([H])(C(=O)N([H])C([H])([H])[H])C([H])([H])C([H])([H])C(=O)OC([H])([H])C([H])([H])N([H])C(=O)C([H])([H])C1([H])[H]


 39 40  0  0  0  0  0  0  0  0999 V2000
  -88.0044   28.7870   -0.8061 C   0  0  0  0  0  0  0  0  0  0  0  0
  -86.9409   29.8291   -0.9188 C   0  0  0  0  0  0  0  0  0  0  0  0
  -85.7799   29.7211    0.0062 C   0  0  0  0  0  0  0  0  0  0  0  0
  -85.4010   31.0890    0.5183 C   0  0  0  0  0  0  0  0  0  0  0  0
  -85.8691   31.4076    1.6645 O   0  0  0  0  0  0  0  0  0  0  0  0
  -84.6105   31.9688   -0.1623 O   0  0  0  0  0  0  0  0  0  0  0  0
  -84.7090   32.4209   -1.4670 C   0  0  0  0  0  0  0  0  0  0  0  0
  -85.4887   33.7271   -1.6208 C   0  0  0  0  0  0  0  0  0  0  0  0
  -85.8909   33.8506   -2.9947 N   0  0  0  0  0  0  0  0  0  0  0  0
  -87.0192   34.5417   -3.4895 C   0  0  0  0  0  0  0  0  0  0  0  0
  -86.9100   35.3255   -4.4954 O   0  0  0  0  0  0  0  0  0  0  0  0
  -88.3953   34.4335   -2.9150 C   0  0  0  0  0  0  0  0  0  0  0  0
  -88.7215   33.0347   -2.5048 C   0  0  0  0  0  0  0  0  0  0  0  0
  -89.3556   32.1743   -3.5771 C   0  0  0  0  0  0  0  0  0  0  0  0
  -89.6501   30.8941   -3.0020 N   0  0  0  0  0  0  0  0  0  0  0  0
  -90.5601   30.7785   -1.9492 C   0  0  0  0  0  0  0  0  0  0  0  0
  -90.0098   30.3977   -0.6186 C   0  0  0  0  0  0  0  0  0  0  0  0
  -90.2888   31.2169    0.3266 O   0  0  0  0  0  0  0  0  0  0  0  0
  -89.2515   29.2986   -0.2573 N   0  0  0  0  0  0  0  0  0  0  0  0
  -85.2803   33.3783   -3.7238 H   0  0  0  0  0  0  0  0  0  0  0  0
  -89.5918   30.1728   -3.7170 H   0  0  0  0  0  0  0  0  0  0  0  0
  -89.6164   28.7039    0.5606 H   0  0  0  0  0  0  0  0  0  0  0  0
  -87.0354   26.3691    2.0113 C   0  0  0  0  0  0  0  0  0  0  0  0
  -87.5039   27.5307    1.2991 N   0  0  0  0  0  0  0  0  0  0  0  0
  -87.5204   27.5879   -0.1017 C   0  0  0  0  0  0  0  0  0  0  0  0
  -87.1199   26.6110   -0.7551 O   0  0  0  0  0  0  0  0  0  0  0  0
  -87.8396   28.3523    1.8437 H   0  0  0  0  0  0  0  0  0  0  0  0
  -90.4501   32.8445   -4.2755 C   0  0  0  0  0  0  0  0  0  0  0  0
  -91.0182   32.4626   -5.3242 O   0  0  0  0  0  0  0  0  0  0  0  0
  -90.9129   34.0479   -3.7121 O   0  0  0  0  0  0  0  0  0  0  0  0
  -90.5236   34.8889   -4.1168 H   0  0  0  0  0  0  0  0  0  0  0  0
  -91.7624   29.8848   -2.2750 C   0  0  0  0  0  0  0  0  0  0  0  0
  -91.5427   29.0996   -3.5228 C   0  0  0  0  0  0  0  0  0  0  0  0
  -91.6460   27.6263   -3.2762 C   0  0  0  0  0  0  0  0  0  0  0  0
  -92.7111   26.8805   -3.6790 C   0  0  0  0  0  0  0  0  0  0  0  0
  -92.6895   25.5205   -3.3939 C   0  0  0  0  0  0  0  0  0  0  0  0
  -91.6356   24.9263   -2.7269 C   0  0  0  0  0  0  0  0  0  0  0  0
  -90.5661   25.6921   -2.3257 C   0  0  0  0  0  0  0  0  0  0  0  0
  -90.5940   27.0375   -2.6111 C   0  0  0  0  0  0  0  0  0  0  0  0
 23 24  1  0  0  0
 24 25  1  0  0  0
 25 26  2  0  0  0
 25  1  1  0  0  0
  1  2  1  0  0  0
  2  3  1  0  0  0
  3  4  1  0  0  0
  4  5  2  0  0  0
  4  6  1  0  0  0
  6  7  1  0  0  0
  7  8  1  0  0  0
  8  9  1  0  0  0
  9 10  1  0  0  0
 10 11  2  0  0  0
 10 12  1  0  0  0
 12 13  1  0  0  0
 13 14  1  0  0  0
 14 28  1  0  0  0
 28 29  2  0  0  0
 28 30  1  0  0  0
 14 15  1  0  0  0
 15 16  1  0  0  0
 16 32  1  0  0  0
 32 33  1  0  0  0
 33 34  1  0  0  0
 34 35  2  0  0  0
 35 36  1  0  0  0
 36 37  2  0  0  0
 37 38  1  0  0  0
 38 39  2  0  0  0
 16 17  1  0  0  0
 17 18  2  0  0  0
 17 19  1  0  0  0
 19  1  1  0  0  0
 39 34  1  0  0  0
 24 27  1  0  0  0
  9 20  1  0  0  0
 30 31  1  0  0  0
 15 21  1  0  0  0
 19 22  1  0  0  0
M  END
> <minimizedAffinity>
-7.03988

> <CNNscore>
0.1290612519

> <CNNaffinity>
5.2469224930

> <CNN_VS>
0.6771743894

> <CNNaffinity_variance>
0.2430064678

$$$$
[H]OC(=O)[C@]1([H])N([H])[C@@]([H])(C([H])([H])C([H])([H])c2c([H])c([H])c([H])c([H])c2[H])C(=O)N([H])[C@]([H])(C(=O)N([H])C([H])([H])[H])C([H])([H])C([H])([H])C(=O)OC([H])([H])C([H])([H])N([H])C(=O)C([H])([H])C1([H])[H]


 39 40  0  0  0  0  0  0  0  0999 V2000
  -90.3350   29.6809   -3.2246 C   0  0  0  0  0  0  0  0  0  0  0  0
  -89.7046   31.0314   -3.1321 C   0  0  0  0  0  0  0  0  0  0  0  0
  -88.7299   31.2547   -2.0297 C   0  0  0  0  0  0  0  0  0  0  0  0
  -88.9391   32.6223   -1.4273 C   0  0  0  0  0  0  0  0  0  0  0  0
  -89.6526   32.6645   -0.3673 O   0  0  0  0  0  0  0  0  0  0  0  0
  -88.4200   33.7736   -1.9442 O   0  0  0  0  0  0  0  0  0  0  0  0
  -88.4791   34.2697   -3.2352 C   0  0  0  0  0  0  0  0  0  0  0  0
  -89.6387   35.2347   -3.4837 C   0  0  0  0  0  0  0  0  0  0  0  0
  -89.8519   35.3245   -4.9018 N   0  0  0  0  0  0  0  0  0  0  0  0
  -91.0659   35.6222   -5.5600 C   0  0  0  0  0  0  0  0  0  0  0  0
  -91.0943   36.4755   -6.5135 O   0  0  0  0  0  0  0  0  0  0  0  0
  -92.3831   34.9991   -5.2256 C   0  0  0  0  0  0  0  0  0  0  0  0
  -92.2500   33.5450   -4.9110 C   0  0  0  0  0  0  0  0  0  0  0  0
  -92.3738   32.6100   -6.0954 C   0  0  0  0  0  0  0  0  0  0  0  0
  -92.2776   31.2641   -5.6099 N   0  0  0  0  0  0  0  0  0  0  0  0
  -93.2321   30.7555   -4.7267 C   0  0  0  0  0  0  0  0  0  0  0  0
  -92.7847   30.4799   -3.3330 C   0  0  0  0  0  0  0  0  0  0  0  0
  -93.4712   31.0718   -2.4271 O   0  0  0  0  0  0  0  0  0  0  0  0
  -91.7486   29.6839   -2.8784 N   0  0  0  0  0  0  0  0  0  0  0  0
  -89.0136   35.1535   -5.5308 H   0  0  0  0  0  0  0  0  0  0  0  0
  -91.8635   30.6686   -6.3232 H   0  0  0  0  0  0  0  0  0  0  0  0
  -91.9957   28.9347   -2.1480 H   0  0  0  0  0  0  0  0  0  0  0  0
  -89.2395   27.2592   -0.4572 C   0  0  0  0  0  0  0  0  0  0  0  0
  -89.9732   28.2479   -1.2056 N   0  0  0  0  0  0  0  0  0  0  0  0
  -89.5674   28.6687   -2.4799 C   0  0  0  0  0  0  0  0  0  0  0  0
  -88.5445   28.1786   -2.9852 O   0  0  0  0  0  0  0  0  0  0  0  0
  -90.8309   28.6620   -0.7846 H   0  0  0  0  0  0  0  0  0  0  0  0
  -93.5192   32.9166   -6.9492 C   0  0  0  0  0  0  0  0  0  0  0  0
  -94.6269   33.3738   -6.5854 O   0  0  0  0  0  0  0  0  0  0  0  0
  -93.3624   32.6689   -8.3254 O   0  0  0  0  0  0  0  0  0  0  0  0
  -93.7274   31.7821   -8.6463 H   0  0  0  0  0  0  0  0  0  0  0  0
  -93.9788   29.5319   -5.2706 C   0  0  0  0  0  0  0  0  0  0  0  0
  -93.0518   28.5712   -5.9334 C   0  0  0  0  0  0  0  0  0  0  0  0
  -93.3642   27.1543   -5.5633 C   0  0  0  0  0  0  0  0  0  0  0  0
  -92.9839   26.5962   -4.3814 C   0  0  0  0  0  0  0  0  0  0  0  0
  -93.3362   25.2716   -4.1519 C   0  0  0  0  0  0  0  0  0  0  0  0
  -94.0462   24.5295   -5.0760 C   0  0  0  0  0  0  0  0  0  0  0  0
  -94.4237   25.1064   -6.2660 C   0  0  0  0  0  0  0  0  0  0  0  0
  -94.0718   26.4178   -6.4866 C   0  0  0  0  0  0  0  0  0  0  0  0
 23 24  1  0  0  0
 24 25  1  0  0  0
 25 26  2  0  0  0
 25  1  1  0  0  0
  1  2  1  0  0  0
  2  3  1  0  0  0
  3  4  1  0  0  0
  4  5  2  0  0  0
  4  6  1  0  0  0
  6  7  1  0  0  0
  7  8  1  0  0  0
  8  9  1  0  0  0
  9 10  1  0  0  0
 10 11  2  0  0  0
 10 12  1  0  0  0
 12 13  1  0  0  0
 13 14  1  0  0  0
 14 28  1  0  0  0
 28 29  2  0  0  0
 28 30  1  0  0  0
 14 15  1  0  0  0
 15 16  1  0  0  0
 16 32  1  0  0  0
 32 33  1  0  0  0
 33 34  1  0  0  0
 34 35  2  0  0  0
 35 36  1  0  0  0
 36 37  2  0  0  0
 37 38  1  0  0  0
 38 39  2  0  0  0
 16 17  1  0  0  0
 17 18  2  0  0  0
 17 19  1  0  0  0
 19  1  1  0  0  0
 39 34  1  0  0  0
 24 27  1  0  0  0
  9 20  1  0  0  0
 30 31  1  0  0  0
 15 21  1  0  0  0
 19 22  1  0  0  0
M  END
> <minimizedAffinity>
-6.52740

> <CNNscore>
0.1171205267

> <CNNaffinity>
4.6709957123

> <CNN_VS>
0.5470694900

> <CNNaffinity_variance>
0.2423951924

$$$$
[H]OC(=O)[C@]1([H])N([H])[C@@]([H])(C([H])([H])C([H])([H])c2c([H])c([H])c([H])c([H])c2[H])C(=O)N([H])[C@]([H])(C(=O)N([H])C([H])([H])[H])C([H])([H])C([H])([H])C(=O)OC([H])([H])C([H])([H])N([H])C(=O)C([H])([H])C1([H])[H]


 39 40  0  0  0  0  0  0  0  0999 V2000
  -89.8833   32.5138   -3.9067 C   0  0  0  0  0  0  0  0  0  0  0  0
  -90.7049   31.2700   -3.8192 C   0  0  0  0  0  0  0  0  0  0  0  0
  -92.1075   31.3434   -4.3118 C   0  0  0  0  0  0  0  0  0  0  0  0
  -93.0211   30.5890   -3.3774 C   0  0  0  0  0  0  0  0  0  0  0  0
  -93.6348   31.2929   -2.5043 O   0  0  0  0  0  0  0  0  0  0  0  0
  -93.2142   29.2388   -3.4208 O   0  0  0  0  0  0  0  0  0  0  0  0
  -92.2860   28.2119   -3.4353 C   0  0  0  0  0  0  0  0  0  0  0  0
  -91.9533   27.6477   -2.0538 C   0  0  0  0  0  0  0  0  0  0  0  0
  -90.7090   26.9352   -2.1477 N   0  0  0  0  0  0  0  0  0  0  0  0
  -89.7697   26.7284   -1.1131 C   0  0  0  0  0  0  0  0  0  0  0  0
  -89.2660   25.5684   -0.9167 O   0  0  0  0  0  0  0  0  0  0  0  0
  -89.2887   27.7955   -0.1828 C   0  0  0  0  0  0  0  0  0  0  0  0
  -89.0823   29.0977   -0.8848 C   0  0  0  0  0  0  0  0  0  0  0  0
  -87.7009   29.3102   -1.4669 C   0  0  0  0  0  0  0  0  0  0  0  0
  -87.6618   30.6199   -2.0497 N   0  0  0  0  0  0  0  0  0  0  0  0
  -87.8305   31.7574   -1.2575 C   0  0  0  0  0  0  0  0  0  0  0  0
  -89.0825   32.5395   -1.4553 C   0  0  0  0  0  0  0  0  0  0  0  0
  -89.7764   32.7106   -0.3916 O   0  0  0  0  0  0  0  0  0  0  0  0
  -89.5989   33.1048   -2.6075 N   0  0  0  0  0  0  0  0  0  0  0  0
  -90.4612   26.5127   -3.0898 H   0  0  0  0  0  0  0  0  0  0  0  0
  -87.0172   30.6285   -2.8367 H   0  0  0  0  0  0  0  0  0  0  0  0
  -89.8407   34.1516   -2.5691 H   0  0  0  0  0  0  0  0  0  0  0  0
  -90.9085   34.2034   -7.1956 C   0  0  0  0  0  0  0  0  0  0  0  0
  -90.3567   33.2738   -6.2431 N   0  0  0  0  0  0  0  0  0  0  0  0
  -90.4556   33.4794   -4.8598 C   0  0  0  0  0  0  0  0  0  0  0  0
  -91.0348   34.4923   -4.4353 O   0  0  0  0  0  0  0  0  0  0  0  0
  -89.8693   32.4237   -6.5954 H   0  0  0  0  0  0  0  0  0  0  0  0
  -86.6285   28.9788   -0.5314 C   0  0  0  0  0  0  0  0  0  0  0  0
  -85.4128   28.8431   -0.7992 O   0  0  0  0  0  0  0  0  0  0  0  0
  -87.0016   28.7889    0.8120 O   0  0  0  0  0  0  0  0  0  0  0  0
  -87.1459   27.8261    1.0854 H   0  0  0  0  0  0  0  0  0  0  0  0
  -86.6285   32.7086   -1.2887 C   0  0  0  0  0  0  0  0  0  0  0  0
  -86.1293   33.0100    0.0831 C   0  0  0  0  0  0  0  0  0  0  0  0
  -84.9232   32.1916    0.4264 C   0  0  0  0  0  0  0  0  0  0  0  0
  -83.7966   32.1758   -0.3375 C   0  0  0  0  0  0  0  0  0  0  0  0
  -82.7414   31.3777    0.0877 C   0  0  0  0  0  0  0  0  0  0  0  0
  -82.8119   30.6196    1.2406 C   0  0  0  0  0  0  0  0  0  0  0  0
  -83.9565   30.6452    2.0026 C   0  0  0  0  0  0  0  0  0  0  0  0
  -84.9970   31.4374    1.5758 C   0  0  0  0  0  0  0  0  0  0  0  0
 23 24  1  0  0  0
 24 25  1  0  0  0
 25 26  2  0  0  0
 25  1  1  0  0  0
  1  2  1  0  0  0
  2  3  1  0  0  0
  3  4  1  0  0  0
  4  5  2  0  0  0
  4  6  1  0  0  0
  6  7  1  0  0  0
  7  8  1  0  0  0
  8  9  1  0  0  0
  9 10  1  0  0  0
 10 11  2  0  0  0
 10 12  1  0  0  0
 12 13  1  0  0  0
 13 14  1  0  0  0
 14 28  1  0  0  0
 28 29  2  0  0  0
 28 30  1  0  0  0
 14 15  1  0  0  0
 15 16  1  0  0  0
 16 32  1  0  0  0
 32 33  1  0  0  0
 33 34  1  0  0  0
 34 35  2  0  0  0
 35 36  1  0  0  0
 36 37  2  0  0  0
 37 38  1  0  0  0
 38 39  2  0  0  0
 16 17  1  0  0  0
 17 18  2  0  0  0
 17 19  1  0  0  0
 19  1  1  0  0  0
 39 34  1  0  0  0
 24 27  1  0  0  0
  9 20  1  0  0  0
 30 31  1  0  0  0
 15 21  1  0  0  0
 19 22  1  0  0  0
M  END
> <minimizedAffinity>
-9.06483

> <CNNscore>
0.0884546265

> <CNNaffinity>
5.2788915634

> <CNN_VS>
0.4669423699

> <CNNaffinity_variance>
0.3991298079

$$$$
[H]OC(=O)[C@]1([H])N([H])[C@@]([H])(C([H])([H])C([H])([H])c2c([H])c([H])c([H])c([H])c2[H])C(=O)N([H])[C@]([H])(C(=O)N([H])C([H])([H])[H])C([H])([H])C([H])([H])C(=O)OC([H])([H])C([H])([H])N([H])C(=O)C([H])([H])C1([H])[H]


 39 40  0  0  0  0  0  0  0  0999 V2000
  -90.2287   30.3821   -3.2951 C   0  0  0  0  0  0  0  0  0  0  0  0
  -91.4211   30.3095   -4.1910 C   0  0  0  0  0  0  0  0  0  0  0  0
  -91.9423   31.5920   -4.7376 C   0  0  0  0  0  0  0  0  0  0  0  0
  -93.4509   31.5896   -4.7059 C   0  0  0  0  0  0  0  0  0  0  0  0
  -93.9912   32.1728   -3.7048 O   0  0  0  0  0  0  0  0  0  0  0  0
  -94.2353   31.0138   -5.6627 O   0  0  0  0  0  0  0  0  0  0  0  0
  -94.1869   29.7376   -6.1968 C   0  0  0  0  0  0  0  0  0  0  0  0
  -95.1070   28.7324   -5.5037 C   0  0  0  0  0  0  0  0  0  0  0  0
  -94.6564   27.4088   -5.8350 N   0  0  0  0  0  0  0  0  0  0  0  0
  -94.8136   26.2397   -5.0578 C   0  0  0  0  0  0  0  0  0  0  0  0
  -95.2199   25.1523   -5.5968 O   0  0  0  0  0  0  0  0  0  0  0  0
  -94.5340   26.1561   -3.5915 C   0  0  0  0  0  0  0  0  0  0  0  0
  -93.3162   26.9321   -3.2094 C   0  0  0  0  0  0  0  0  0  0  0  0
  -92.0128   26.1638   -3.2633 C   0  0  0  0  0  0  0  0  0  0  0  0
  -90.9653   27.0356   -2.8171 N   0  0  0  0  0  0  0  0  0  0  0  0
  -90.9627   27.5372   -1.5140 C   0  0  0  0  0  0  0  0  0  0  0  0
  -91.2063   28.9976   -1.3513 C   0  0  0  0  0  0  0  0  0  0  0  0
  -92.1840   29.2906   -0.5763 O   0  0  0  0  0  0  0  0  0  0  0  0
  -90.5360   30.0727   -1.9066 N   0  0  0  0  0  0  0  0  0  0  0  0
  -94.1533   27.2849   -6.7619 H   0  0  0  0  0  0  0  0  0  0  0  0
  -90.0925   26.7911   -3.2791 H   0  0  0  0  0  0  0  0  0  0  0  0
  -90.1697   30.8209   -1.2269 H   0  0  0  0  0  0  0  0  0  0  0  0
  -87.8028   33.0504   -4.6059 C   0  0  0  0  0  0  0  0  0  0  0  0
  -88.5222   31.8138   -4.4347 N   0  0  0  0  0  0  0  0  0  0  0  0
  -89.5074   31.6565   -3.4496 C   0  0  0  0  0  0  0  0  0  0  0  0
  -89.7729   32.6081   -2.6976 O   0  0  0  0  0  0  0  0  0  0  0  0
  -88.3015   31.0132   -5.0629 H   0  0  0  0  0  0  0  0  0  0  0  0
  -92.0929   24.8550   -2.6187 C   0  0  0  0  0  0  0  0  0  0  0  0
  -91.9678   24.6099   -1.3970 O   0  0  0  0  0  0  0  0  0  0  0  0
  -92.3328   23.7528   -3.4598 O   0  0  0  0  0  0  0  0  0  0  0  0
  -91.5077   23.2416   -3.7434 H   0  0  0  0  0  0  0  0  0  0  0  0
  -89.7222   27.1372   -0.7067 C   0  0  0  0  0  0  0  0  0  0  0  0
  -89.7219   27.7608    0.6471 C   0  0  0  0  0  0  0  0  0  0  0  0
  -89.9579   26.7476    1.7242 C   0  0  0  0  0  0  0  0  0  0  0  0
  -90.6365   25.5866    1.5135 C   0  0  0  0  0  0  0  0  0  0  0  0
  -90.7879   24.7242    2.5927 C   0  0  0  0  0  0  0  0  0  0  0  0
  -90.2765   25.0150    3.8428 C   0  0  0  0  0  0  0  0  0  0  0  0
  -89.5931   26.1919    4.0412 C   0  0  0  0  0  0  0  0  0  0  0  0
  -89.4469   27.0407    2.9686 C   0  0  0  0  0  0  0  0  0  0  0  0
 23 24  1  0  0  0
 24 25  1  0  0  0
 25 26  2  0  0  0
 25  1  1  0  0  0
  1  2  1  0  0  0
  2  3  1  0  0  0
  3  4  1  0  0  0
  4  5  2  0  0  0
  4  6  1  0  0  0
  6  7  1  0  0  0
  7  8  1  0  0  0
  8  9  1  0  0  0
  9 10  1  0  0  0
 10 11  2  0  0  0
 10 12  1  0  0  0
 12 13  1  0  0  0
 13 14  1  0  0  0
 14 28  1  0  0  0
 28 29  2  0  0  0
 28 30  1  0  0  0
 14 15  1  0  0  0
 15 16  1  0  0  0
 16 32  1  0  0  0
 32 33  1  0  0  0
 33 34  1  0  0  0
 34 35  2  0  0  0
 35 36  1  0  0  0
 36 37  2  0  0  0
 37 38  1  0  0  0
 38 39  2  0  0  0
 16 17  1  0  0  0
 17 18  2  0  0  0
 17 19  1  0  0  0
 19  1  1  0  0  0
 39 34  1  0  0  0
 24 27  1  0  0  0
  9 20  1  0  0  0
 30 31  1  0  0  0
 15 21  1  0  0  0
 19 22  1  0  0  0
M  END
> <minimizedAffinity>
-6.09440

> <CNNscore>
0.0763892606

> <CNNaffinity>
4.8337516785

> <CNN_VS>
0.3692467213

> <CNNaffinity_variance>
0.2788671553

$$$$
[H]OC(=O)[C@]1([H])N([H])[C@@]([H])(C([H])([H])C([H])([H])c2c([H])c([H])c([H])c([H])c2[H])C(=O)N([H])[C@]([H])(C(=O)N([H])C([H])([H])[H])C([H])([H])C([H])([H])C(=O)OC([H])([H])C([H])([H])N([H])C(=O)C([H])([H])C1([H])[H]


 39 40  0  0  0  0  0  0  0  0999 V2000
  -89.7301   29.4489   -1.7193 C   0  0  0  0  0  0  0  0  0  0  0  0
  -88.8439   30.6378   -1.8956 C   0  0  0  0  0  0  0  0  0  0  0  0
  -89.0745   31.4880   -3.0953 C   0  0  0  0  0  0  0  0  0  0  0  0
  -87.7527   31.9035   -3.6930 C   0  0  0  0  0  0  0  0  0  0  0  0
  -87.3354   31.1989   -4.6747 O   0  0  0  0  0  0  0  0  0  0  0  0
  -87.0102   32.9589   -3.2489 O   0  0  0  0  0  0  0  0  0  0  0  0
  -86.5938   33.2705   -1.9660 C   0  0  0  0  0  0  0  0  0  0  0  0
  -85.2013   32.7467   -1.6141 C   0  0  0  0  0  0  0  0  0  0  0  0
  -85.0722   32.7413   -0.1830 N   0  0  0  0  0  0  0  0  0  0  0  0
  -84.2538   31.8895    0.5918 C   0  0  0  0  0  0  0  0  0  0  0  0
  -83.5265   32.3666    1.5306 O   0  0  0  0  0  0  0  0  0  0  0  0
  -84.1575   30.4095    0.4034 C   0  0  0  0  0  0  0  0  0  0  0  0
  -85.4853   29.7972    0.0981 C   0  0  0  0  0  0  0  0  0  0  0  0
  -86.2894   29.3553    1.3024 C   0  0  0  0  0  0  0  0  0  0  0  0
  -87.4983   28.7462    0.8293 N   0  0  0  0  0  0  0  0  0  0  0  0
  -87.4552   27.5842    0.0561 C   0  0  0  0  0  0  0  0  0  0  0  0
  -87.8604   27.7069   -1.3719 C   0  0  0  0  0  0  0  0  0  0  0  0
  -86.9794   27.3046   -2.2112 O   0  0  0  0  0  0  0  0  0  0  0  0
  -89.0380   28.1842   -1.9187 N   0  0  0  0  0  0  0  0  0  0  0  0
  -85.6464   33.4511    0.3591 H   0  0  0  0  0  0  0  0  0  0  0  0
  -88.2450   28.8906    1.5050 H   0  0  0  0  0  0  0  0  0  0  0  0
  -89.5503   27.5385   -2.6089 H   0  0  0  0  0  0  0  0  0  0  0  0
  -93.2461   30.4750   -2.8632 C   0  0  0  0  0  0  0  0  0  0  0  0
  -92.0342   30.3498   -2.0939 N   0  0  0  0  0  0  0  0  0  0  0  0
  -90.9583   29.5602   -2.5239 C   0  0  0  0  0  0  0  0  0  0  0  0
  -91.0460   28.9466   -3.5997 O   0  0  0  0  0  0  0  0  0  0  0  0
  -91.9575   30.8621   -1.1907 H   0  0  0  0  0  0  0  0  0  0  0  0
  -85.5032   28.5865    2.2646 C   0  0  0  0  0  0  0  0  0  0  0  0
  -85.1169   27.4014    2.1435 O   0  0  0  0  0  0  0  0  0  0  0  0
  -85.1449   29.2462    3.4546 O   0  0  0  0  0  0  0  0  0  0  0  0
  -85.7513   29.0675    4.2439 H   0  0  0  0  0  0  0  0  0  0  0  0
  -88.1909   26.3987    0.6916 C   0  0  0  0  0  0  0  0  0  0  0  0
  -89.5450   26.7878    1.1781 C   0  0  0  0  0  0  0  0  0  0  0  0
  -89.6672   26.6307    2.6622 C   0  0  0  0  0  0  0  0  0  0  0  0
  -89.4674   25.4452    3.3007 C   0  0  0  0  0  0  0  0  0  0  0  0
  -89.6070   25.4269    4.6833 C   0  0  0  0  0  0  0  0  0  0  0  0
  -89.9362   26.5591    5.4034 C   0  0  0  0  0  0  0  0  0  0  0  0
  -90.1353   27.7501    4.7451 C   0  0  0  0  0  0  0  0  0  0  0  0
  -89.9954   27.7609    3.3767 C   0  0  0  0  0  0  0  0  0  0  0  0
 23 24  1  0  0  0
 24 25  1  0  0  0
 25 26  2  0  0  0
 25  1  1  0  0  0
  1  2  1  0  0  0
  2  3  1  0  0  0
  3  4  1  0  0  0
  4  5  2  0  0  0
  4  6  1  0  0  0
  6  7  1  0  0  0
  7  8  1  0  0  0
  8  9  1  0  0  0
  9 10  1  0  0  0
 10 11  2  0  0  0
 10 12  1  0  0  0
 12 13  1  0  0  0
 13 14  1  0  0  0
 14 28  1  0  0  0
 28 29  2  0  0  0
 28 30  1  0  0  0
 14 15  1  0  0  0
 15 16  1  0  0  0
 16 32  1  0  0  0
 32 33  1  0  0  0
 33 34  1  0  0  0
 34 35  2  0  0  0
 35 36  1  0  0  0
 36 37  2  0  0  0
 37 38  1  0  0  0
 38 39  2  0  0  0
 16 17  1  0  0  0
 17 18  2  0  0  0
 17 19  1  0  0  0
 19  1  1  0  0  0
 39 34  1  0  0  0
 24 27  1  0  0  0
  9 20  1  0  0  0
 30 31  1  0  0  0
 15 21  1  0  0  0
 19 22  1  0  0  0
M  END
> <minimizedAffinity>
-9.01312

> <CNNscore>
0.0690786615

> <CNNaffinity>
5.7675223351

> <CNN_VS>
0.3984127343

> <CNNaffinity_variance>
0.2372698486

$$$$
[H]c1nc2n(n1)C([H])(c1sc([H])c([H])c1[H])C([H])([H])C([H])(c1c([H])c([H])c(Cl)c(Cl)c1[H])N2[H]


 23 26  0  0  0  0  0  0  0  0999 V2000
  -87.3986   32.7422   -2.3717 C   0  0  0  0  0  0  0  0  0  0  0  0
  -87.4361   32.7594   -0.8831 C   0  0  0  0  0  0  0  0  0  0  0  0
  -86.8182   31.5477   -0.2881 C   0  0  0  0  0  0  0  0  0  0  0  0
  -87.0580   30.3359   -1.0055 N   0  0  0  0  0  0  0  0  0  0  0  0
  -86.7753   29.0876   -0.6946 N   0  0  0  0  0  0  0  0  0  0  0  0
  -87.1806   28.2526   -1.6596 C   0  0  0  0  0  0  0  0  0  0  0  0
  -87.7346   29.0407   -2.5973 N   0  0  0  0  0  0  0  0  0  0  0  0
  -87.6748   30.3276   -2.2247 C   0  0  0  0  0  0  0  0  0  0  0  0
  -88.0955   31.5508   -2.8151 N   0  0  0  0  0  0  0  0  0  0  0  0
  -88.8581   31.5143   -3.5108 H   0  0  0  0  0  0  0  0  0  0  0  0
  -89.4303   37.7658   -4.9377 Cl  0  0  0  0  0  0  0  0  0  0  0  0
  -88.8556   36.2972   -4.1851 C   0  0  0  0  0  0  0  0  0  0  0  0
  -89.7504   35.4466   -3.5790 C   0  0  0  0  0  0  0  0  0  0  0  0
  -89.2611   34.2767   -2.9839 C   0  0  0  0  0  0  0  0  0  0  0  0
  -87.9293   33.9657   -2.9921 C   0  0  0  0  0  0  0  0  0  0  0  0
  -87.0523   34.8326   -3.6050 C   0  0  0  0  0  0  0  0  0  0  0  0
  -87.5073   36.0118   -4.2103 C   0  0  0  0  0  0  0  0  0  0  0  0
  -86.4045   37.1232   -4.9929 Cl  0  0  0  0  0  0  0  0  0  0  0  0
  -85.3293   31.7012   -0.0867 C   0  0  0  0  0  0  0  0  0  0  0  0
  -84.4923   30.8661    0.5968 C   0  0  0  0  0  0  0  0  0  0  0  0
  -83.1969   31.1954    0.6531 C   0  0  0  0  0  0  0  0  0  0  0  0
  -82.8146   32.3488    0.0175 C   0  0  0  0  0  0  0  0  0  0  0  0
  -84.2787   32.9291   -0.6343 S   0  0  0  0  0  0  0  0  0  0  0  0
 11 12  1  0  0  0
 12 13  2  0  0  0
 13 14  1  0  0  0
 14 15  2  0  0  0
 15  1  1  0  0  0
  1  2  1  0  0  0
  2  3  1  0  0  0
  3 19  1  0  0  0
 19 20  2  0  0  0
 20 21  1  0  0  0
 21 22  2  0  0  0
 22 23  1  0  0  0
  3  4  1  0  0  0
  4  5  1  0  0  0
  5  6  2  0  0  0
  6  7  1  0  0  0
  7  8  2  0  0  0
  8  9  1  0  0  0
 15 16  1  0  0  0
 16 17  2  0  0  0
 17 18  1  0  0  0
 17 12  1  0  0  0
  9  1  1  0  0  0
 23 19  1  0  0  0
  8  4  1  0  0  0
  9 10  1  0  0  0
M  END
> <minimizedAffinity>
-7.74349

> <CNNscore>
0.4138473868

> <CNNaffinity>
6.0925984383

> <CNN_VS>
2.5214059353

> <CNNaffinity_variance>
0.1583790034

$$$$
[H]c1nc2n(n1)C([H])(c1sc([H])c([H])c1[H])C([H])([H])C([H])(c1c([H])c([H])c(Cl)c(Cl)c1[H])N2[H]


 23 26  0  0  0  0  0  0  0  0999 V2000
  -86.9449   28.8414   -0.1982 C   0  0  0  0  0  0  0  0  0  0  0  0
  -87.0551   30.0362    0.6839 C   0  0  0  0  0  0  0  0  0  0  0  0
  -85.8080   30.2919    1.4476 C   0  0  0  0  0  0  0  0  0  0  0  0
  -85.1263   29.1195    1.8966 N   0  0  0  0  0  0  0  0  0  0  0  0
  -84.0862   28.9874    2.6940 N   0  0  0  0  0  0  0  0  0  0  0  0
  -83.7698   27.6964    2.8546 C   0  0  0  0  0  0  0  0  0  0  0  0
  -84.6661   27.0196    2.1156 N   0  0  0  0  0  0  0  0  0  0  0  0
  -85.5142   27.8665    1.5139 C   0  0  0  0  0  0  0  0  0  0  0  0
  -86.6249   27.7036    0.6412 N   0  0  0  0  0  0  0  0  0  0  0  0
  -87.1254   26.8001    0.6599 H   0  0  0  0  0  0  0  0  0  0  0  0
  -91.8272   28.0243   -3.5810 Cl  0  0  0  0  0  0  0  0  0  0  0  0
  -90.4004   28.2443   -2.5964 C   0  0  0  0  0  0  0  0  0  0  0  0
  -89.6081   27.1618   -2.2930 C   0  0  0  0  0  0  0  0  0  0  0  0
  -88.4707   27.3681   -1.5019 C   0  0  0  0  0  0  0  0  0  0  0  0
  -88.1350   28.6072   -1.0303 C   0  0  0  0  0  0  0  0  0  0  0  0
  -88.9434   29.6759   -1.3471 C   0  0  0  0  0  0  0  0  0  0  0  0
  -90.0889   29.5057   -2.1363 C   0  0  0  0  0  0  0  0  0  0  0  0
  -91.1260   30.8546   -2.5471 Cl  0  0  0  0  0  0  0  0  0  0  0  0
  -84.8314   31.1533    0.6826 C   0  0  0  0  0  0  0  0  0  0  0  0
  -83.4859   30.9638    0.5457 C   0  0  0  0  0  0  0  0  0  0  0  0
  -82.8041   31.8569   -0.1806 C   0  0  0  0  0  0  0  0  0  0  0  0
  -83.5151   32.8928   -0.7299 C   0  0  0  0  0  0  0  0  0  0  0  0
  -85.1083   32.5801   -0.2112 S   0  0  0  0  0  0  0  0  0  0  0  0
 11 12  1  0  0  0
 12 13  2  0  0  0
 13 14  1  0  0  0
 14 15  2  0  0  0
 15  1  1  0  0  0
  1  2  1  0  0  0
  2  3  1  0  0  0
  3 19  1  0  0  0
 19 20  2  0  0  0
 20 21  1  0  0  0
 21 22  2  0  0  0
 22 23  1  0  0  0
  3  4  1  0  0  0
  4  5  1  0  0  0
  5  6  2  0  0  0
  6  7  1  0  0  0
  7  8  2  0  0  0
  8  9  1  0  0  0
 15 16  1  0  0  0
 16 17  2  0  0  0
 17 18  1  0  0  0
 17 12  1  0  0  0
  9  1  1  0  0  0
 23 19  1  0  0  0
  8  4  1  0  0  0
  9 10  1  0  0  0
M  END
> <minimizedAffinity>
-7.33726

> <CNNscore>
0.2609806061

> <CNNaffinity>
6.3371086121

> <CNN_VS>
1.6538624763

> <CNNaffinity_variance>
0.1394225657

$$$$
[H]c1nc2n(n1)C([H])(c1sc([H])c([H])c1[H])C([H])([H])C([H])(c1c([H])c([H])c(Cl)c(Cl)c1[H])N2[H]


 23 26  0  0  0  0  0  0  0  0999 V2000
  -87.3964   32.6407   -2.4837 C   0  0  0  0  0  0  0  0  0  0  0  0
  -87.5167   32.7855   -1.0064 C   0  0  0  0  0  0  0  0  0  0  0  0
  -86.9000   31.6502   -0.2752 C   0  0  0  0  0  0  0  0  0  0  0  0
  -87.0667   30.3738   -0.8946 N   0  0  0  0  0  0  0  0  0  0  0  0
  -86.7679   29.1667   -0.4603 N   0  0  0  0  0  0  0  0  0  0  0  0
  -87.0962   28.2388   -1.3680 C   0  0  0  0  0  0  0  0  0  0  0  0
  -87.6187   28.9247   -2.3995 N   0  0  0  0  0  0  0  0  0  0  0  0
  -87.6147   30.2403   -2.1392 C   0  0  0  0  0  0  0  0  0  0  0  0
  -88.0350   31.3938   -2.8564 N   0  0  0  0  0  0  0  0  0  0  0  0
  -88.7567   31.2728   -3.5856 H   0  0  0  0  0  0  0  0  0  0  0  0
  -89.6170   37.2290   -5.6405 Cl  0  0  0  0  0  0  0  0  0  0  0  0
  -88.9612   35.9038   -4.7092 C   0  0  0  0  0  0  0  0  0  0  0  0
  -88.1487   36.1650   -3.6307 C   0  0  0  0  0  0  0  0  0  0  0  0
  -87.6375   35.0830   -2.9026 C   0  0  0  0  0  0  0  0  0  0  0  0
  -87.9250   33.7883   -3.2367 C   0  0  0  0  0  0  0  0  0  0  0  0
  -88.7408   33.5514   -4.3205 C   0  0  0  0  0  0  0  0  0  0  0  0
  -89.2697   34.6101   -5.0712 C   0  0  0  0  0  0  0  0  0  0  0  0
  -90.3078   34.3244   -6.4513 Cl  0  0  0  0  0  0  0  0  0  0  0  0
  -85.4293   31.8680   -0.0097 C   0  0  0  0  0  0  0  0  0  0  0  0
  -84.5785   32.7019   -0.6775 C   0  0  0  0  0  0  0  0  0  0  0  0
  -83.3032   32.7396   -0.2749 C   0  0  0  0  0  0  0  0  0  0  0  0
  -82.9540   31.9350    0.7791 C   0  0  0  0  0  0  0  0  0  0  0  0
  -84.4197   31.1566    1.1675 S   0  0  0  0  0  0  0  0  0  0  0  0
 11 12  1  0  0  0
 12 13  2  0  0  0
 13 14  1  0  0  0
 14 15  2  0  0  0
 15  1  1  0  0  0
  1  2  1  0  0  0
  2  3  1  0  0  0
  3 19  1  0  0  0
 19 20  2  0  0  0
 20 21  1  0  0  0
 21 22  2  0  0  0
 22 23  1  0  0  0
  3  4  1  0  0  0
  4  5  1  0  0  0
  5  6  2  0  0  0
  6  7  1  0  0  0
  7  8  2  0  0  0
  8  9  1  0  0  0
 15 16  1  0  0  0
 16 17  2  0  0  0
 17 18  1  0  0  0
 17 12  1  0  0  0
  9  1  1  0  0  0
 23 19  1  0  0  0
  8  4  1  0  0  0
  9 10  1  0  0  0
M  END
> <minimizedAffinity>
-7.30758

> <CNNscore>
0.2379173189

> <CNNaffinity>
5.7776970863

> <CNN_VS>
1.3746142387

> <CNNaffinity_variance>
0.2337101996

$$$$
[H]c1nc2n(n1)C([H])(c1sc([H])c([H])c1[H])C([H])([H])C([H])(c1c([H])c([H])c(Cl)c(Cl)c1[H])N2[H]


 23 26  0  0  0  0  0  0  0  0999 V2000
  -87.4990   30.8506   -0.9171 C   0  0  0  0  0  0  0  0  0  0  0  0
  -87.0083   29.5060   -1.3282 C   0  0  0  0  0  0  0  0  0  0  0  0
  -86.2642   28.8195   -0.2424 C   0  0  0  0  0  0  0  0  0  0  0  0
  -85.4497   29.6738    0.5623 N   0  0  0  0  0  0  0  0  0  0  0  0
  -84.5765   29.3838    1.5049 N   0  0  0  0  0  0  0  0  0  0  0  0
  -84.0291   30.4980    2.0065 C   0  0  0  0  0  0  0  0  0  0  0  0
  -84.6035   31.5079    1.3301 N   0  0  0  0  0  0  0  0  0  0  0  0
  -85.4820   31.0338    0.4345 C   0  0  0  0  0  0  0  0  0  0  0  0
  -86.3471   31.6361   -0.5197 N   0  0  0  0  0  0  0  0  0  0  0  0
  -86.1047   32.5793   -0.8639 H   0  0  0  0  0  0  0  0  0  0  0  0
  -90.6941   33.6746   -5.1318 Cl  0  0  0  0  0  0  0  0  0  0  0  0
  -89.7779   32.8415   -3.8988 C   0  0  0  0  0  0  0  0  0  0  0  0
  -90.3901   31.8829   -3.1256 C   0  0  0  0  0  0  0  0  0  0  0  0
  -89.6309   31.2315   -2.1451 C   0  0  0  0  0  0  0  0  0  0  0  0
  -88.3105   31.5243   -1.9422 C   0  0  0  0  0  0  0  0  0  0  0  0
  -87.7192   32.4877   -2.7286 C   0  0  0  0  0  0  0  0  0  0  0  0
  -88.4488   33.1592   -3.7189 C   0  0  0  0  0  0  0  0  0  0  0  0
  -87.7108   34.3860   -4.7260 Cl  0  0  0  0  0  0  0  0  0  0  0  0
  -87.1737   28.0264    0.6658 C   0  0  0  0  0  0  0  0  0  0  0  0
  -86.8192   27.0424    1.5440 C   0  0  0  0  0  0  0  0  0  0  0  0
  -87.7940   26.4647    2.2553 C   0  0  0  0  0  0  0  0  0  0  0  0
  -89.0735   26.9097    2.0432 C   0  0  0  0  0  0  0  0  0  0  0  0
  -88.8665   28.1178    0.8588 S   0  0  0  0  0  0  0  0  0  0  0  0
 11 12  1  0  0  0
 12 13  2  0  0  0
 13 14  1  0  0  0
 14 15  2  0  0  0
 15  1  1  0  0  0
  1  2  1  0  0  0
  2  3  1  0  0  0
  3 19  1  0  0  0
 19 20  2  0  0  0
 20 21  1  0  0  0
 21 22  2  0  0  0
 22 23  1  0  0  0
  3  4  1  0  0  0
  4  5  1  0  0  0
  5  6  2  0  0  0
  6  7  1  0  0  0
  7  8  2  0  0  0
  8  9  1  0  0  0
 15 16  1  0  0  0
 16 17  2  0  0  0
 17 18  1  0  0  0
 17 12  1  0  0  0
  9  1  1  0  0  0
 23 19  1  0  0  0
  8  4  1  0  0  0
  9 10  1  0  0  0
M  END
> <minimizedAffinity>
-6.76920

> <CNNscore>
0.2272726297

> <CNNaffinity>
6.1747212410

> <CNN_VS>
1.4033451080

> <CNNaffinity_variance>
0.7458726764

$$$$
[H]c1nc2n(n1)C([H])(c1sc([H])c([H])c1[H])C([H])([H])C([H])(c1c([H])c([H])c(Cl)c(Cl)c1[H])N2[H]


 23 26  0  0  0  0  0  0  0  0999 V2000
  -88.0521   29.7138   -0.5005 C   0  0  0  0  0  0  0  0  0  0  0  0
  -89.3334   30.2958   -0.0132 C   0  0  0  0  0  0  0  0  0  0  0  0
  -90.4398   29.3061   -0.0131 C   0  0  0  0  0  0  0  0  0  0  0  0
  -90.4298   28.3920   -1.1109 N   0  0  0  0  0  0  0  0  0  0  0  0
  -91.3164   27.4915   -1.4823 N   0  0  0  0  0  0  0  0  0  0  0  0
  -90.9073   26.8450   -2.5811 C   0  0  0  0  0  0  0  0  0  0  0  0
  -89.7143   27.3855   -2.8841 N   0  0  0  0  0  0  0  0  0  0  0  0
  -89.3924   28.3400   -1.9987 C   0  0  0  0  0  0  0  0  0  0  0  0
  -88.2796   29.2110   -1.8410 N   0  0  0  0  0  0  0  0  0  0  0  0
  -87.7130   29.4269   -2.6772 H   0  0  0  0  0  0  0  0  0  0  0  0
  -83.3436   33.4114   -0.1747 Cl  0  0  0  0  0  0  0  0  0  0  0  0
  -84.7257   32.3471   -0.2781 C   0  0  0  0  0  0  0  0  0  0  0  0
  -85.8907   32.7968   -0.8543 C   0  0  0  0  0  0  0  0  0  0  0  0
  -86.9822   31.9217   -0.9235 C   0  0  0  0  0  0  0  0  0  0  0  0
  -86.9157   30.6454   -0.4365 C   0  0  0  0  0  0  0  0  0  0  0  0
  -85.7387   30.2174    0.1359 C   0  0  0  0  0  0  0  0  0  0  0  0
  -84.6270   31.0663    0.2217 C   0  0  0  0  0  0  0  0  0  0  0  0
  -83.1245   30.5363    0.9467 Cl  0  0  0  0  0  0  0  0  0  0  0  0
  -90.5034   28.5146    1.2717 C   0  0  0  0  0  0  0  0  0  0  0  0
  -91.1056   28.8771    2.4425 C   0  0  0  0  0  0  0  0  0  0  0  0
  -91.0396   28.0184    3.4663 C   0  0  0  0  0  0  0  0  0  0  0  0
  -90.3702   26.8405    3.2548 C   0  0  0  0  0  0  0  0  0  0  0  0
  -89.8587   26.9771    1.6347 S   0  0  0  0  0  0  0  0  0  0  0  0
 11 12  1  0  0  0
 12 13  2  0  0  0
 13 14  1  0  0  0
 14 15  2  0  0  0
 15  1  1  0  0  0
  1  2  1  0  0  0
  2  3  1  0  0  0
  3 19  1  0  0  0
 19 20  2  0  0  0
 20 21  1  0  0  0
 21 22  2  0  0  0
 22 23  1  0  0  0
  3  4  1  0  0  0
  4  5  1  0  0  0
  5  6  2  0  0  0
  6  7  1  0  0  0
  7  8  2  0  0  0
  8  9  1  0  0  0
 15 16  1  0  0  0
 16 17  2  0  0  0
 17 18  1  0  0  0
 17 12  1  0  0  0
  9  1  1  0  0  0
 23 19  1  0  0  0
  8  4  1  0  0  0
  9 10  1  0  0  0
M  END
> <minimizedAffinity>
-7.73344

> <CNNscore>
0.2056723684

> <CNNaffinity>
6.0636873245

> <CNN_VS>
1.2471328974

> <CNNaffinity_variance>
0.0887131244

$$$$
[H]c1nc2n(n1)C([H])(c1sc([H])c([H])c1[H])C([H])([H])C([H])(c1c([H])c([H])c(Cl)c(Cl)c1[H])N2[H]


 23 26  0  0  0  0  0  0  0  0999 V2000
  -87.8862   32.3648   -2.0421 C   0  0  0  0  0  0  0  0  0  0  0  0
  -87.3593   32.5471   -3.4230 C   0  0  0  0  0  0  0  0  0  0  0  0
  -88.3874   33.0743   -4.3552 C   0  0  0  0  0  0  0  0  0  0  0  0
  -89.7071   32.5700   -4.1433 N   0  0  0  0  0  0  0  0  0  0  0  0
  -90.8054   32.7225   -4.8542 N   0  0  0  0  0  0  0  0  0  0  0  0
  -91.8313   32.0713   -4.2918 C   0  0  0  0  0  0  0  0  0  0  0  0
  -91.3220   31.4991   -3.1871 N   0  0  0  0  0  0  0  0  0  0  0  0
  -90.0176   31.7870   -3.0675 C   0  0  0  0  0  0  0  0  0  0  0  0
  -89.0125   31.4553   -2.1180 N   0  0  0  0  0  0  0  0  0  0  0  0
  -89.1458   30.6017   -1.5518 H   0  0  0  0  0  0  0  0  0  0  0  0
  -83.6629   30.6569    1.8560 Cl  0  0  0  0  0  0  0  0  0  0  0  0
  -84.9049   31.1411    0.7262 C   0  0  0  0  0  0  0  0  0  0  0  0
  -86.0968   30.4560    0.6886 C   0  0  0  0  0  0  0  0  0  0  0  0
  -87.0741   30.8666   -0.2271 C   0  0  0  0  0  0  0  0  0  0  0  0
  -86.8713   31.9209   -1.0743 C   0  0  0  0  0  0  0  0  0  0  0  0
  -85.6701   32.5916   -1.0184 C   0  0  0  0  0  0  0  0  0  0  0  0
  -84.6702   32.2079   -0.1145 C   0  0  0  0  0  0  0  0  0  0  0  0
  -83.1384   33.0509   -0.0321 Cl  0  0  0  0  0  0  0  0  0  0  0  0
  -88.4432   34.5836   -4.3560 C   0  0  0  0  0  0  0  0  0  0  0  0
  -88.7389   35.4051   -3.3059 C   0  0  0  0  0  0  0  0  0  0  0  0
  -88.7333   36.7242   -3.5291 C   0  0  0  0  0  0  0  0  0  0  0  0
  -88.4301   37.1443   -4.7987 C   0  0  0  0  0  0  0  0  0  0  0  0
  -88.1643   35.6814   -5.6320 S   0  0  0  0  0  0  0  0  0  0  0  0
 11 12  1  0  0  0
 12 13  2  0  0  0
 13 14  1  0  0  0
 14 15  2  0  0  0
 15  1  1  0  0  0
  1  2  1  0  0  0
  2  3  1  0  0  0
  3 19  1  0  0  0
 19 20  2  0  0  0
 20 21  1  0  0  0
 21 22  2  0  0  0
 22 23  1  0  0  0
  3  4  1  0  0  0
  4  5  1  0  0  0
  5  6  2  0  0  0
  6  7  1  0  0  0
  7  8  2  0  0  0
  8  9  1  0  0  0
 15 16  1  0  0  0
 16 17  2  0  0  0
 17 18  1  0  0  0
 17 12  1  0  0  0
  9  1  1  0  0  0
 23 19  1  0  0  0
  8  4  1  0  0  0
  9 10  1  0  0  0
M  END
> <minimizedAffinity>
-7.19585

> <CNNscore>
0.2026003152

> <CNNaffinity>
5.6887869835

> <CNN_VS>
1.1525499821

> <CNNaffinity_variance>
0.1988520771

$$$$
[H]c1nc2n(n1)C([H])(c1sc([H])c([H])c1[H])C([H])([H])C([H])(c1c([H])c([H])c(Cl)c(Cl)c1[H])N2[H]


 23 26  0  0  0  0  0  0  0  0999 V2000
  -86.8296   31.7514   -1.0147 C   0  0  0  0  0  0  0  0  0  0  0  0
  -88.1415   31.9492   -0.3382 C   0  0  0  0  0  0  0  0  0  0  0  0
  -89.1394   32.6043   -1.2208 C   0  0  0  0  0  0  0  0  0  0  0  0
  -88.6098   33.6115   -2.0843 N   0  0  0  0  0  0  0  0  0  0  0  0
  -89.2216   34.4620   -2.8826 N   0  0  0  0  0  0  0  0  0  0  0  0
  -88.3367   35.2414   -3.5168 C   0  0  0  0  0  0  0  0  0  0  0  0
  -87.1325   34.8375   -3.0762 N   0  0  0  0  0  0  0  0  0  0  0  0
  -87.2665   33.8363   -2.1940 C   0  0  0  0  0  0  0  0  0  0  0  0
  -86.3522   33.0535   -1.4370 N   0  0  0  0  0  0  0  0  0  0  0  0
  -85.4213   33.4550   -1.2388 H   0  0  0  0  0  0  0  0  0  0  0  0
  -82.8988   28.7079    2.3371 Cl  0  0  0  0  0  0  0  0  0  0  0  0
  -84.0323   29.6090    1.3588 C   0  0  0  0  0  0  0  0  0  0  0  0
  -83.6918   30.8595    0.8986 C   0  0  0  0  0  0  0  0  0  0  0  0
  -84.6202   31.5585    0.1165 C   0  0  0  0  0  0  0  0  0  0  0  0
  -85.8429   31.0311   -0.1955 C   0  0  0  0  0  0  0  0  0  0  0  0
  -86.1615   29.7774    0.2765 C   0  0  0  0  0  0  0  0  0  0  0  0
  -85.2567   29.0500    1.0615 C   0  0  0  0  0  0  0  0  0  0  0  0
  -85.6477   27.4556    1.6687 Cl  0  0  0  0  0  0  0  0  0  0  0  0
  -89.9087   31.6093   -2.0570 C   0  0  0  0  0  0  0  0  0  0  0  0
  -90.6093   30.5216   -1.6198 C   0  0  0  0  0  0  0  0  0  0  0  0
  -91.2206   29.7664   -2.5395 C   0  0  0  0  0  0  0  0  0  0  0  0
  -91.0929   30.1480   -3.8503 C   0  0  0  0  0  0  0  0  0  0  0  0
  -90.1242   31.5467   -3.7484 S   0  0  0  0  0  0  0  0  0  0  0  0
 11 12  1  0  0  0
 12 13  2  0  0  0
 13 14  1  0  0  0
 14 15  2  0  0  0
 15  1  1  0  0  0
  1  2  1  0  0  0
  2  3  1  0  0  0
  3 19  1  0  0  0
 19 20  2  0  0  0
 20 21  1  0  0  0
 21 22  2  0  0  0
 22 23  1  0  0  0
  3  4  1  0  0  0
  4  5  1  0  0  0
  5  6  2  0  0  0
  6  7  1  0  0  0
  7  8  2  0  0  0
  8  9  1  0  0  0
 15 16  1  0  0  0
 16 17  2  0  0  0
 17 18  1  0  0  0
 17 12  1  0  0  0
  9  1  1  0  0  0
 23 19  1  0  0  0
  8  4  1  0  0  0
  9 10  1  0  0  0
M  END
> <minimizedAffinity>
-8.03025

> <CNNscore>
0.1758359522

> <CNNaffinity>
5.9612870216

> <CNN_VS>
1.0482085943

> <CNNaffinity_variance>
0.4607039392

$$$$
[H]c1nc2n(n1)C([H])(c1sc([H])c([H])c1[H])C([H])([H])C([H])(c1c([H])c([H])c(Cl)c(Cl)c1[H])N2[H]


 23 26  0  0  0  0  0  0  0  0999 V2000
  -87.9265   29.1554   -0.2407 C   0  0  0  0  0  0  0  0  0  0  0  0
  -88.0458   28.5988   -1.6169 C   0  0  0  0  0  0  0  0  0  0  0  0
  -89.3884   28.0219   -1.8789 C   0  0  0  0  0  0  0  0  0  0  0  0
  -89.9791   27.3440   -0.7688 N   0  0  0  0  0  0  0  0  0  0  0  0
  -91.0774   26.6208   -0.6942 N   0  0  0  0  0  0  0  0  0  0  0  0
  -91.2630   26.1631    0.5503 C   0  0  0  0  0  0  0  0  0  0  0  0
  -90.2226   26.6362    1.2582 N   0  0  0  0  0  0  0  0  0  0  0  0
  -89.4148   27.3663    0.4754 C   0  0  0  0  0  0  0  0  0  0  0  0
  -88.2056   28.0821    0.6930 N   0  0  0  0  0  0  0  0  0  0  0  0
  -87.6123   27.7973    1.4891 H   0  0  0  0  0  0  0  0  0  0  0  0
  -82.7140   31.9348    0.7851 Cl  0  0  0  0  0  0  0  0  0  0  0  0
  -84.2262   31.1091    0.4936 C   0  0  0  0  0  0  0  0  0  0  0  0
  -84.3613   29.7879    0.8507 C   0  0  0  0  0  0  0  0  0  0  0  0
  -85.5850   29.1518    0.6050 C   0  0  0  0  0  0  0  0  0  0  0  0
  -86.6354   29.8079    0.0248 C   0  0  0  0  0  0  0  0  0  0  0  0
  -86.4766   31.1305   -0.3241 C   0  0  0  0  0  0  0  0  0  0  0  0
  -85.2662   31.7979   -0.0928 C   0  0  0  0  0  0  0  0  0  0  0  0
  -85.0497   33.4787   -0.5310 Cl  0  0  0  0  0  0  0  0  0  0  0  0
  -90.3673   29.0522   -2.3900 C   0  0  0  0  0  0  0  0  0  0  0  0
  -91.3773   28.8648   -3.2900 C   0  0  0  0  0  0  0  0  0  0  0  0
  -92.1309   29.9238   -3.6067 C   0  0  0  0  0  0  0  0  0  0  0  0
  -91.8260   31.1148   -2.9992 C   0  0  0  0  0  0  0  0  0  0  0  0
  -90.4989   30.7102   -2.0092 S   0  0  0  0  0  0  0  0  0  0  0  0
 11 12  1  0  0  0
 12 13  2  0  0  0
 13 14  1  0  0  0
 14 15  2  0  0  0
 15  1  1  0  0  0
  1  2  1  0  0  0
  2  3  1  0  0  0
  3 19  1  0  0  0
 19 20  2  0  0  0
 20 21  1  0  0  0
 21 22  2  0  0  0
 22 23  1  0  0  0
  3  4  1  0  0  0
  4  5  1  0  0  0
  5  6  2  0  0  0
  6  7  1  0  0  0
  7  8  2  0  0  0
  8  9  1  0  0  0
 15 16  1  0  0  0
 16 17  2  0  0  0
 17 18  1  0  0  0
 17 12  1  0  0  0
  9  1  1  0  0  0
 23 19  1  0  0  0
  8  4  1  0  0  0
  9 10  1  0  0  0
M  END
> <minimizedAffinity>
-7.35879

> <CNNscore>
0.1219085157

> <CNNaffinity>
5.8700113297

> <CNN_VS>
0.7156043649

> <CNNaffinity_variance>
0.2548356056

$$$$
[H]c1nc2n(n1)C([H])(c1sc([H])c([H])c1[H])C([H])([H])C([H])(c1c([H])c([H])c(Cl)c(Cl)c1[H])N2[H]


 23 26  0  0  0  0  0  0  0  0999 V2000
  -87.3545   28.1838    0.7237 C   0  0  0  0  0  0  0  0  0  0  0  0
  -88.6567   28.8281    1.0506 C   0  0  0  0  0  0  0  0  0  0  0  0
  -89.7744   27.8521    1.0969 C   0  0  0  0  0  0  0  0  0  0  0  0
  -89.7052   26.8113    0.1209 N   0  0  0  0  0  0  0  0  0  0  0  0
  -90.5779   25.8774   -0.1970 N   0  0  0  0  0  0  0  0  0  0  0  0
  -90.1069   25.0996   -1.1798 C   0  0  0  0  0  0  0  0  0  0  0  0
  -88.8893   25.5924   -1.4659 N   0  0  0  0  0  0  0  0  0  0  0  0
  -88.6128   26.6456   -0.6831 C   0  0  0  0  0  0  0  0  0  0  0  0
  -87.5008   27.5229   -0.5582 N   0  0  0  0  0  0  0  0  0  0  0  0
  -86.8777   27.6322   -1.3748 H   0  0  0  0  0  0  0  0  0  0  0  0
  -82.7758   32.0545    0.7637 Cl  0  0  0  0  0  0  0  0  0  0  0  0
  -84.0996   30.9138    0.7608 C   0  0  0  0  0  0  0  0  0  0  0  0
  -83.9264   29.6672    1.3153 C   0  0  0  0  0  0  0  0  0  0  0  0
  -85.0051   28.7737    1.2988 C   0  0  0  0  0  0  0  0  0  0  0  0
  -86.2119   29.1097    0.7500 C   0  0  0  0  0  0  0  0  0  0  0  0
  -86.3616   30.3635    0.2008 C   0  0  0  0  0  0  0  0  0  0  0  0
  -85.3036   31.2825    0.2002 C   0  0  0  0  0  0  0  0  0  0  0  0
  -85.4791   32.8797   -0.4943 Cl  0  0  0  0  0  0  0  0  0  0  0  0
  -89.9327   27.2232    2.4609 C   0  0  0  0  0  0  0  0  0  0  0  0
  -90.7010   27.6695    3.4980 C   0  0  0  0  0  0  0  0  0  0  0  0
  -90.6937   26.9540    4.6285 C   0  0  0  0  0  0  0  0  0  0  0  0
  -89.9125   25.8273    4.6528 C   0  0  0  0  0  0  0  0  0  0  0  0
  -89.2182   25.8101    3.0963 S   0  0  0  0  0  0  0  0  0  0  0  0
 11 12  1  0  0  0
 12 13  2  0  0  0
 13 14  1  0  0  0
 14 15  2  0  0  0
 15  1  1  0  0  0
  1  2  1  0  0  0
  2  3  1  0  0  0
  3 19  1  0  0  0
 19 20  2  0  0  0
 20 21  1  0  0  0
 21 22  2  0  0  0
 22 23  1  0  0  0
  3  4  1  0  0  0
  4  5  1  0  0  0
  5  6  2  0  0  0
  6  7  1  0  0  0
  7  8  2  0  0  0
  8  9  1  0  0  0
 15 16  1  0  0  0
 16 17  2  0  0  0
 17 18  1  0  0  0
 17 12  1  0  0  0
  9  1  1  0  0  0
 23 19  1  0  0  0
  8  4  1  0  0  0
  9 10  1  0  0  0
M  END
> <minimizedAffinity>
-7.80373

> <CNNscore>
0.1156811193

> <CNNaffinity>
5.9277076721

> <CNN_VS>
0.6857238412

> <CNNaffinity_variance>
0.1871597469

$$$$
[H]c1nc([H])c2c(c1[H])c1c([H])nc(N([H])c3nnc(N([H])C([H])([H])C4([H])C([H])([H])N([H])C4([H])[H])c([H])c3[H])nc1n2C1([H])C([H])([H])C([H])([H])C([H])([H])C1([H])[H]


 34 39  0  0  0  0  0  0  0  0999 V2000
  -83.1715   27.9621    2.6153 C   0  0  0  0  0  0  0  0  0  0  0  0
  -83.2399   29.2138    2.0302 C   0  0  0  0  0  0  0  0  0  0  0  0
  -84.3715   29.5817    1.3351 C   0  0  0  0  0  0  0  0  0  0  0  0
  -84.6904   30.7353    0.6754 C   0  0  0  0  0  0  0  0  0  0  0  0
  -84.0437   31.9473    0.4443 C   0  0  0  0  0  0  0  0  0  0  0  0
  -84.6726   32.8937   -0.2698 N   0  0  0  0  0  0  0  0  0  0  0  0
  -85.9110   32.7419   -0.7855 C   0  0  0  0  0  0  0  0  0  0  0  0
  -86.5559   31.5834   -0.5772 N   0  0  0  0  0  0  0  0  0  0  0  0
  -85.9526   30.6049    0.1391 C   0  0  0  0  0  0  0  0  0  0  0  0
  -86.3916   29.3589    0.4828 N   0  0  0  0  0  0  0  0  0  0  0  0
  -85.4505   28.7365    1.2007 C   0  0  0  0  0  0  0  0  0  0  0  0
  -85.3483   27.4960    1.7968 C   0  0  0  0  0  0  0  0  0  0  0  0
  -84.2464   27.1560    2.4656 N   0  0  0  0  0  0  0  0  0  0  0  0
  -87.6716   28.7858    0.1337 C   0  0  0  0  0  0  0  0  0  0  0  0
  -88.3100   28.0341    1.2731 C   0  0  0  0  0  0  0  0  0  0  0  0
  -89.0163   26.8516    0.6731 C   0  0  0  0  0  0  0  0  0  0  0  0
  -88.5867   26.7315   -0.7551 C   0  0  0  0  0  0  0  0  0  0  0  0
  -87.6126   27.8521   -1.0333 C   0  0  0  0  0  0  0  0  0  0  0  0
  -86.5121   33.8094   -1.5400 N   0  0  0  0  0  0  0  0  0  0  0  0
  -86.2199   34.7895   -1.3363 H   0  0  0  0  0  0  0  0  0  0  0  0
  -87.4801   33.5606   -2.5411 C   0  0  0  0  0  0  0  0  0  0  0  0
  -88.8152   33.8606   -2.3959 C   0  0  0  0  0  0  0  0  0  0  0  0
  -89.7387   33.6033   -3.3981 C   0  0  0  0  0  0  0  0  0  0  0  0
  -89.3143   33.0299   -4.5779 C   0  0  0  0  0  0  0  0  0  0  0  0
  -87.9908   32.7522   -4.6750 N   0  0  0  0  0  0  0  0  0  0  0  0
  -87.1237   33.0042   -3.7093 N   0  0  0  0  0  0  0  0  0  0  0  0
  -90.2062   32.7389   -5.6467 N   0  0  0  0  0  0  0  0  0  0  0  0
  -90.3996   31.7604   -5.9011 H   0  0  0  0  0  0  0  0  0  0  0  0
  -90.8407   33.8140   -6.3752 C   0  0  0  0  0  0  0  0  0  0  0  0
  -92.3426   33.6390   -6.4361 C   0  0  0  0  0  0  0  0  0  0  0  0
  -92.8223   33.3544   -7.8419 C   0  0  0  0  0  0  0  0  0  0  0  0
  -93.7072   32.3167   -7.3171 N   0  0  0  0  0  0  0  0  0  0  0  0
  -92.8171   32.2349   -6.1585 C   0  0  0  0  0  0  0  0  0  0  0  0
  -93.6133   31.4313   -7.8790 H   0  0  0  0  0  0  0  0  0  0  0  0
  1  2  2  0  0  0
  2  3  1  0  0  0
  3  4  1  0  0  0
  4  5  2  0  0  0
  5  6  1  0  0  0
  6  7  2  0  0  0
  7 19  1  0  0  0
 19 21  1  0  0  0
 21 22  2  0  0  0
 22 23  1  0  0  0
 23 24  2  0  0  0
 24 27  1  0  0  0
 27 29  1  0  0  0
 29 30  1  0  0  0
 30 31  1  0  0  0
 31 32  1  0  0  0
 32 33  1  0  0  0
 24 25  1  0  0  0
 25 26  2  0  0  0
  7  8  1  0  0  0
  8  9  2  0  0  0
  9 10  1  0  0  0
 10 14  1  0  0  0
 14 15  1  0  0  0
 15 16  1  0  0  0
 16 17  1  0  0  0
 17 18  1  0  0  0
 10 11  1  0  0  0
 11 12  1  0  0  0
 12 13  2  0  0  0
 13  1  1  0  0  0
 11  3  2  0  0  0
  9  4  1  0  0  0
 18 14  1  0  0  0
 26 21  1  0  0  0
 33 30  1  0  0  0
 19 20  1  0  0  0
 27 28  1  0  0  0
 32 34  1  0  0  0
M  END
> <minimizedAffinity>
-9.13477

> <CNNscore>
0.6400309205

> <CNNaffinity>
7.3429107666

> <CNN_VS>
4.6996898651

> <CNNaffinity_variance>
0.6012459397

$$$$
[H]c1nc([H])c2c(c1[H])c1c([H])nc(N([H])c3nnc(N([H])C([H])([H])C4([H])C([H])([H])N([H])C4([H])[H])c([H])c3[H])nc1n2C1([H])C([H])([H])C([H])([H])C([H])([H])C1([H])[H]


 34 39  0  0  0  0  0  0  0  0999 V2000
  -83.4294   27.9323    2.7253 C   0  0  0  0  0  0  0  0  0  0  0  0
  -83.5162   29.1926    2.1616 C   0  0  0  0  0  0  0  0  0  0  0  0
  -84.5930   29.5103    1.3623 C   0  0  0  0  0  0  0  0  0  0  0  0
  -84.9149   30.6599    0.6969 C   0  0  0  0  0  0  0  0  0  0  0  0
  -84.3249   31.9140    0.5575 C   0  0  0  0  0  0  0  0  0  0  0  0
  -84.9364   32.8396   -0.1978 N   0  0  0  0  0  0  0  0  0  0  0  0
  -86.1049   32.6277   -0.8401 C   0  0  0  0  0  0  0  0  0  0  0  0
  -86.6942   31.4276   -0.7219 N   0  0  0  0  0  0  0  0  0  0  0  0
  -86.1063   30.4684    0.0322 C   0  0  0  0  0  0  0  0  0  0  0  0
  -86.4993   29.1898    0.3042 N   0  0  0  0  0  0  0  0  0  0  0  0
  -85.5983   28.6060    1.1016 C   0  0  0  0  0  0  0  0  0  0  0  0
  -85.4797   27.3586    1.6798 C   0  0  0  0  0  0  0  0  0  0  0  0
  -84.4316   27.0675    2.4505 N   0  0  0  0  0  0  0  0  0  0  0  0
  -87.6996   28.5505   -0.1851 C   0  0  0  0  0  0  0  0  0  0  0  0
  -87.6780   28.3194   -1.6740 C   0  0  0  0  0  0  0  0  0  0  0  0
  -89.0812   28.5299   -2.1678 C   0  0  0  0  0  0  0  0  0  0  0  0
  -89.8751   29.1439   -1.0582 C   0  0  0  0  0  0  0  0  0  0  0  0
  -88.9518   29.3069    0.1263 C   0  0  0  0  0  0  0  0  0  0  0  0
  -86.6922   33.6768   -1.6302 N   0  0  0  0  0  0  0  0  0  0  0  0
  -86.4121   34.6625   -1.4370 H   0  0  0  0  0  0  0  0  0  0  0  0
  -87.6311   33.4028   -2.6523 C   0  0  0  0  0  0  0  0  0  0  0  0
  -87.3739   32.5650   -3.7131 C   0  0  0  0  0  0  0  0  0  0  0  0
  -88.3176   32.3178   -4.6990 C   0  0  0  0  0  0  0  0  0  0  0  0
  -89.5524   32.9261   -4.6210 C   0  0  0  0  0  0  0  0  0  0  0  0
  -89.7598   33.7426   -3.5586 N   0  0  0  0  0  0  0  0  0  0  0  0
  -88.8486   33.9672   -2.6273 N   0  0  0  0  0  0  0  0  0  0  0  0
  -90.5665   32.7179   -5.5961 N   0  0  0  0  0  0  0  0  0  0  0  0
  -90.3930   32.9715   -6.5784 H   0  0  0  0  0  0  0  0  0  0  0  0
  -91.8388   32.1509   -5.2099 C   0  0  0  0  0  0  0  0  0  0  0  0
  -91.6678   30.8326   -4.4867 C   0  0  0  0  0  0  0  0  0  0  0  0
  -92.4208   30.8050   -3.1753 C   0  0  0  0  0  0  0  0  0  0  0  0
  -92.8847   29.4541   -3.4836 N   0  0  0  0  0  0  0  0  0  0  0  0
  -92.6538   29.7670   -4.8944 C   0  0  0  0  0  0  0  0  0  0  0  0
  -93.9216   29.3727   -3.3206 H   0  0  0  0  0  0  0  0  0  0  0  0
  1  2  2  0  0  0
  2  3  1  0  0  0
  3  4  1  0  0  0
  4  5  2  0  0  0
  5  6  1  0  0  0
  6  7  2  0  0  0
  7 19  1  0  0  0
 19 21  1  0  0  0
 21 22  2  0  0  0
 22 23  1  0  0  0
 23 24  2  0  0  0
 24 27  1  0  0  0
 27 29  1  0  0  0
 29 30  1  0  0  0
 30 31  1  0  0  0
 31 32  1  0  0  0
 32 33  1  0  0  0
 24 25  1  0  0  0
 25 26  2  0  0  0
  7  8  1  0  0  0
  8  9  2  0  0  0
  9 10  1  0  0  0
 10 14  1  0  0  0
 14 15  1  0  0  0
 15 16  1  0  0  0
 16 17  1  0  0  0
 17 18  1  0  0  0
 10 11  1  0  0  0
 11 12  1  0  0  0
 12 13  2  0  0  0
 13  1  1  0  0  0
 11  3  2  0  0  0
  9  4  1  0  0  0
 18 14  1  0  0  0
 26 21  1  0  0  0
 33 30  1  0  0  0
 19 20  1  0  0  0
 27 28  1  0  0  0
 32 34  1  0  0  0
M  END
> <minimizedAffinity>
-8.85258

> <CNNscore>
0.5523234010

> <CNNaffinity>
7.4123497009

> <CNN_VS>
4.0940141678

> <CNNaffinity_variance>
0.7583459020

$$$$
[H]c1nc([H])c2c(c1[H])c1c([H])nc(N([H])c3nnc(N([H])C([H])([H])C4([H])C([H])([H])N([H])C4([H])[H])c([H])c3[H])nc1n2C1([H])C([H])([H])C([H])([H])C([H])([H])C1([H])[H]


 34 39  0  0  0  0  0  0  0  0999 V2000
  -82.6979   28.3037    2.5124 C   0  0  0  0  0  0  0  0  0  0  0  0
  -83.0725   29.4522    1.8385 C   0  0  0  0  0  0  0  0  0  0  0  0
  -84.3461   29.5563    1.3225 C   0  0  0  0  0  0  0  0  0  0  0  0
  -84.9592   30.5613    0.6281 C   0  0  0  0  0  0  0  0  0  0  0  0
  -84.5759   31.8231    0.1795 C   0  0  0  0  0  0  0  0  0  0  0  0
  -85.4633   32.5703   -0.4951 N   0  0  0  0  0  0  0  0  0  0  0  0
  -86.7228   32.1692   -0.7701 C   0  0  0  0  0  0  0  0  0  0  0  0
  -87.1172   30.9574   -0.3489 N   0  0  0  0  0  0  0  0  0  0  0  0
  -86.2487   30.1750    0.3353 C   0  0  0  0  0  0  0  0  0  0  0  0
  -86.4065   28.9252    0.8610 N   0  0  0  0  0  0  0  0  0  0  0  0
  -85.2708   28.5445    1.4556 C   0  0  0  0  0  0  0  0  0  0  0  0
  -84.8634   27.4134    2.1333 C   0  0  0  0  0  0  0  0  0  0  0  0
  -83.6278   27.3289    2.6263 N   0  0  0  0  0  0  0  0  0  0  0  0
  -87.6074   28.1238    0.7945 C   0  0  0  0  0  0  0  0  0  0  0  0
  -88.0426   27.6033    2.1401 C   0  0  0  0  0  0  0  0  0  0  0  0
  -88.6042   26.2283    1.9142 C   0  0  0  0  0  0  0  0  0  0  0  0
  -88.2645   25.8133    0.5174 C   0  0  0  0  0  0  0  0  0  0  0  0
  -87.4923   26.9450   -0.1189 C   0  0  0  0  0  0  0  0  0  0  0  0
  -87.6104   33.0348   -1.5001 N   0  0  0  0  0  0  0  0  0  0  0  0
  -87.5836   34.0581   -1.3014 H   0  0  0  0  0  0  0  0  0  0  0  0
  -88.5086   32.5328   -2.4709 C   0  0  0  0  0  0  0  0  0  0  0  0
  -88.1871   32.3950   -3.8017 C   0  0  0  0  0  0  0  0  0  0  0  0
  -89.0923   31.8990   -4.7281 C   0  0  0  0  0  0  0  0  0  0  0  0
  -90.3538   31.5311   -4.3110 C   0  0  0  0  0  0  0  0  0  0  0  0
  -90.6247   31.6848   -2.9915 N   0  0  0  0  0  0  0  0  0  0  0  0
  -89.7495   32.1594   -2.1215 N   0  0  0  0  0  0  0  0  0  0  0  0
  -91.3313   31.0154   -5.2062 N   0  0  0  0  0  0  0  0  0  0  0  0
  -91.0496   30.6912   -6.1416 H   0  0  0  0  0  0  0  0  0  0  0  0
  -92.7180   30.9459   -4.8044 C   0  0  0  0  0  0  0  0  0  0  0  0
  -93.2224   29.5194   -4.7783 C   0  0  0  0  0  0  0  0  0  0  0  0
  -92.7452   28.7287   -5.9759 C   0  0  0  0  0  0  0  0  0  0  0  0
  -92.4433   27.6014   -5.0966 N   0  0  0  0  0  0  0  0  0  0  0  0
  -92.3517   28.5657   -3.9997 C   0  0  0  0  0  0  0  0  0  0  0  0
  -91.4809   27.2238   -5.2961 H   0  0  0  0  0  0  0  0  0  0  0  0
  1  2  2  0  0  0
  2  3  1  0  0  0
  3  4  1  0  0  0
  4  5  2  0  0  0
  5  6  1  0  0  0
  6  7  2  0  0  0
  7 19  1  0  0  0
 19 21  1  0  0  0
 21 22  2  0  0  0
 22 23  1  0  0  0
 23 24  2  0  0  0
 24 27  1  0  0  0
 27 29  1  0  0  0
 29 30  1  0  0  0
 30 31  1  0  0  0
 31 32  1  0  0  0
 32 33  1  0  0  0
 24 25  1  0  0  0
 25 26  2  0  0  0
  7  8  1  0  0  0
  8  9  2  0  0  0
  9 10  1  0  0  0
 10 14  1  0  0  0
 14 15  1  0  0  0
 15 16  1  0  0  0
 16 17  1  0  0  0
 17 18  1  0  0  0
 10 11  1  0  0  0
 11 12  1  0  0  0
 12 13  2  0  0  0
 13  1  1  0  0  0
 11  3  2  0  0  0
  9  4  1  0  0  0
 18 14  1  0  0  0
 26 21  1  0  0  0
 33 30  1  0  0  0
 19 20  1  0  0  0
 27 28  1  0  0  0
 32 34  1  0  0  0
M  END
> <minimizedAffinity>
-9.05084

> <CNNscore>
0.2681032717

> <CNNaffinity>
6.9917197227

> <CNN_VS>
1.8745028973

> <CNNaffinity_variance>
0.7039176226

$$$$
[H]c1nc([H])c2c(c1[H])c1c([H])nc(N([H])c3nnc(N([H])C([H])([H])C4([H])C([H])([H])N([H])C4([H])[H])c([H])c3[H])nc1n2C1([H])C([H])([H])C([H])([H])C([H])([H])C1([H])[H]


 34 39  0  0  0  0  0  0  0  0999 V2000
  -82.7234   29.2893    2.0866 C   0  0  0  0  0  0  0  0  0  0  0  0
  -83.3191   30.3393    1.4112 C   0  0  0  0  0  0  0  0  0  0  0  0
  -84.6332   30.2348    1.0095 C   0  0  0  0  0  0  0  0  0  0  0  0
  -85.4445   31.1076    0.3401 C   0  0  0  0  0  0  0  0  0  0  0  0
  -85.2909   32.3892   -0.1836 C   0  0  0  0  0  0  0  0  0  0  0  0
  -86.3328   32.9686   -0.7999 N   0  0  0  0  0  0  0  0  0  0  0  0
  -87.5380   32.3780   -0.9458 C   0  0  0  0  0  0  0  0  0  0  0  0
  -87.7123   31.1430   -0.4500 N   0  0  0  0  0  0  0  0  0  0  0  0
  -86.6830   30.5265    0.1786 C   0  0  0  0  0  0  0  0  0  0  0  0
  -86.6096   29.2928    0.7582 N   0  0  0  0  0  0  0  0  0  0  0  0
  -85.3838   29.1077    1.2599 C   0  0  0  0  0  0  0  0  0  0  0  0
  -84.7582   28.0799    1.9356 C   0  0  0  0  0  0  0  0  0  0  0  0
  -83.4863   28.1972    2.3172 N   0  0  0  0  0  0  0  0  0  0  0  0
  -87.6804   28.3247    0.8279 C   0  0  0  0  0  0  0  0  0  0  0  0
  -87.8841   27.7716    2.2148 C   0  0  0  0  0  0  0  0  0  0  0  0
  -88.2601   26.3257    2.0560 C   0  0  0  0  0  0  0  0  0  0  0  0
  -88.0192   25.9386    0.6309 C   0  0  0  0  0  0  0  0  0  0  0  0
  -87.4955   27.1584   -0.0900 C   0  0  0  0  0  0  0  0  0  0  0  0
  -88.6022   33.0718   -1.6212 N   0  0  0  0  0  0  0  0  0  0  0  0
  -89.5764   32.9544   -1.2682 H   0  0  0  0  0  0  0  0  0  0  0  0
  -88.3580   33.9007   -2.7412 C   0  0  0  0  0  0  0  0  0  0  0  0
  -88.4221   33.4559   -4.0418 C   0  0  0  0  0  0  0  0  0  0  0  0
  -88.1766   34.2958   -5.1179 C   0  0  0  0  0  0  0  0  0  0  0  0
  -87.8582   35.6170   -4.8857 C   0  0  0  0  0  0  0  0  0  0  0  0
  -87.8069   36.0092   -3.5889 N   0  0  0  0  0  0  0  0  0  0  0  0
  -88.0439   35.1949   -2.5746 N   0  0  0  0  0  0  0  0  0  0  0  0
  -87.5946   36.5332   -5.9410 N   0  0  0  0  0  0  0  0  0  0  0  0
  -87.1842   36.1957   -6.8225 H   0  0  0  0  0  0  0  0  0  0  0  0
  -87.9023   37.9360   -5.7775 C   0  0  0  0  0  0  0  0  0  0  0  0
  -87.3040   38.7734   -6.8870 C   0  0  0  0  0  0  0  0  0  0  0  0
  -85.8122   38.9555   -6.7167 C   0  0  0  0  0  0  0  0  0  0  0  0
  -85.6301   38.7002   -8.1439 N   0  0  0  0  0  0  0  0  0  0  0  0
  -86.9094   37.9903   -8.1138 C   0  0  0  0  0  0  0  0  0  0  0  0
  -84.8587   38.0006   -8.2992 H   0  0  0  0  0  0  0  0  0  0  0  0
  1  2  2  0  0  0
  2  3  1  0  0  0
  3  4  1  0  0  0
  4  5  2  0  0  0
  5  6  1  0  0  0
  6  7  2  0  0  0
  7 19  1  0  0  0
 19 21  1  0  0  0
 21 22  2  0  0  0
 22 23  1  0  0  0
 23 24  2  0  0  0
 24 27  1  0  0  0
 27 29  1  0  0  0
 29 30  1  0  0  0
 30 31  1  0  0  0
 31 32  1  0  0  0
 32 33  1  0  0  0
 24 25  1  0  0  0
 25 26  2  0  0  0
  7  8  1  0  0  0
  8  9  2  0  0  0
  9 10  1  0  0  0
 10 14  1  0  0  0
 14 15  1  0  0  0
 15 16  1  0  0  0
 16 17  1  0  0  0
 17 18  1  0  0  0
 10 11  1  0  0  0
 11 12  1  0  0  0
 12 13  2  0  0  0
 13  1  1  0  0  0
 11  3  2  0  0  0
  9  4  1  0  0  0
 18 14  1  0  0  0
 26 21  1  0  0  0
 33 30  1  0  0  0
 19 20  1  0  0  0
 27 28  1  0  0  0
 32 34  1  0  0  0
M  END
> <minimizedAffinity>
-8.36980

> <CNNscore>
0.1342613399

> <CNNaffinity>
6.5935835838

> <CNN_VS>
0.8852633834

> <CNNaffinity_variance>
0.4362750947

$$$$
[H]c1nc([H])c2c(c1[H])c1c([H])nc(N([H])c3nnc(N([H])C([H])([H])C4([H])C([H])([H])N([H])C4([H])[H])c([H])c3[H])nc1n2C1([H])C([H])([H])C([H])([H])C([H])([H])C1([H])[H]


 34 39  0  0  0  0  0  0  0  0999 V2000
  -82.9067   32.2079    0.4253 C   0  0  0  0  0  0  0  0  0  0  0  0
  -83.8753   31.2496    0.6644 C   0  0  0  0  0  0  0  0  0  0  0  0
  -85.1152   31.3703    0.0751 C   0  0  0  0  0  0  0  0  0  0  0  0
  -86.2279   30.5796    0.1437 C   0  0  0  0  0  0  0  0  0  0  0  0
  -86.5532   29.3938    0.7982 C   0  0  0  0  0  0  0  0  0  0  0  0
  -87.7817   28.8782    0.6365 N   0  0  0  0  0  0  0  0  0  0  0  0
  -88.7355   29.4455   -0.1323 C   0  0  0  0  0  0  0  0  0  0  0  0
  -88.4474   30.5887   -0.7739 N   0  0  0  0  0  0  0  0  0  0  0  0
  -87.2176   31.1387   -0.6345 C   0  0  0  0  0  0  0  0  0  0  0  0
  -86.6892   32.2762   -1.1734 N   0  0  0  0  0  0  0  0  0  0  0  0
  -85.4280   32.4245   -0.7540 C   0  0  0  0  0  0  0  0  0  0  0  0
  -84.4384   33.3617   -0.9705 C   0  0  0  0  0  0  0  0  0  0  0  0
  -83.2443   33.2299   -0.3927 N   0  0  0  0  0  0  0  0  0  0  0  0
  -87.3724   33.1895   -2.0610 C   0  0  0  0  0  0  0  0  0  0  0  0
  -88.8434   33.3137   -1.7588 C   0  0  0  0  0  0  0  0  0  0  0  0
  -89.5474   33.4672   -3.0771 C   0  0  0  0  0  0  0  0  0  0  0  0
  -88.5650   33.1645   -4.1644 C   0  0  0  0  0  0  0  0  0  0  0  0
  -87.2476   32.8271   -3.5068 C   0  0  0  0  0  0  0  0  0  0  0  0
  -90.0280   28.8246   -0.2504 N   0  0  0  0  0  0  0  0  0  0  0  0
  -90.8754   29.3934   -0.0363 H   0  0  0  0  0  0  0  0  0  0  0  0
  -90.1722   27.4742   -0.6464 C   0  0  0  0  0  0  0  0  0  0  0  0
  -90.0289   27.0459   -1.9462 C   0  0  0  0  0  0  0  0  0  0  0  0
  -90.1771   25.7133   -2.3007 C   0  0  0  0  0  0  0  0  0  0  0  0
  -90.4770   24.7839   -1.3275 C   0  0  0  0  0  0  0  0  0  0  0  0
  -90.6086   25.2525   -0.0620 N   0  0  0  0  0  0  0  0  0  0  0  0
  -90.4639   26.5270    0.2586 N   0  0  0  0  0  0  0  0  0  0  0  0
  -90.6428   23.4021   -1.6198 N   0  0  0  0  0  0  0  0  0  0  0  0
  -89.8191   22.7872   -1.6748 H   0  0  0  0  0  0  0  0  0  0  0  0
  -91.9648   22.8605   -1.8393 C   0  0  0  0  0  0  0  0  0  0  0  0
  -92.3190   22.8271   -3.3102 C   0  0  0  0  0  0  0  0  0  0  0  0
  -93.4514   21.8666   -3.5977 C   0  0  0  0  0  0  0  0  0  0  0  0
  -94.0562   22.8621   -4.4799 N   0  0  0  0  0  0  0  0  0  0  0  0
  -93.3128   23.8788   -3.7348 C   0  0  0  0  0  0  0  0  0  0  0  0
  -95.0818   22.9700   -4.2680 H   0  0  0  0  0  0  0  0  0  0  0  0
  1  2  2  0  0  0
  2  3  1  0  0  0
  3  4  1  0  0  0
  4  5  2  0  0  0
  5  6  1  0  0  0
  6  7  2  0  0  0
  7 19  1  0  0  0
 19 21  1  0  0  0
 21 22  2  0  0  0
 22 23  1  0  0  0
 23 24  2  0  0  0
 24 27  1  0  0  0
 27 29  1  0  0  0
 29 30  1  0  0  0
 30 31  1  0  0  0
 31 32  1  0  0  0
 32 33  1  0  0  0
 24 25  1  0  0  0
 25 26  2  0  0  0
  7  8  1  0  0  0
  8  9  2  0  0  0
  9 10  1  0  0  0
 10 14  1  0  0  0
 14 15  1  0  0  0
 15 16  1  0  0  0
 16 17  1  0  0  0
 17 18  1  0  0  0
 10 11  1  0  0  0
 11 12  1  0  0  0
 12 13  2  0  0  0
 13  1  1  0  0  0
 11  3  2  0  0  0
  9  4  1  0  0  0
 18 14  1  0  0  0
 26 21  1  0  0  0
 33 30  1  0  0  0
 19 20  1  0  0  0
 27 28  1  0  0  0
 32 34  1  0  0  0
M  END
> <minimizedAffinity>
-8.08576

> <CNNscore>
0.1230093092

> <CNNaffinity>
6.4444556236

> <CNN_VS>
0.7927280068

> <CNNaffinity_variance>
0.3300282657

$$$$
[H]c1nc([H])c2c(c1[H])c1c([H])nc(N([H])c3nnc(N([H])C([H])([H])C4([H])C([H])([H])N([H])C4([H])[H])c([H])c3[H])nc1n2C1([H])C([H])([H])C([H])([H])C([H])([H])C1([H])[H]


 34 39  0  0  0  0  0  0  0  0999 V2000
  -82.6164   31.7844    0.7806 C   0  0  0  0  0  0  0  0  0  0  0  0
  -83.0742   30.5673    1.2526 C   0  0  0  0  0  0  0  0  0  0  0  0
  -84.3699   30.1773    0.9913 C   0  0  0  0  0  0  0  0  0  0  0  0
  -85.0591   29.0481    1.3344 C   0  0  0  0  0  0  0  0  0  0  0  0
  -84.7577   27.8904    2.0480 C   0  0  0  0  0  0  0  0  0  0  0  0
  -85.7068   26.9533    2.1972 N   0  0  0  0  0  0  0  0  0  0  0  0
  -86.9536   27.0646    1.6913 C   0  0  0  0  0  0  0  0  0  0  0  0
  -87.2695   28.1705    0.9994 N   0  0  0  0  0  0  0  0  0  0  0  0
  -86.3372   29.1379    0.8283 C   0  0  0  0  0  0  0  0  0  0  0  0
  -86.4112   30.3347    0.1759 N   0  0  0  0  0  0  0  0  0  0  0  0
  -85.2360   30.9664    0.2676 C   0  0  0  0  0  0  0  0  0  0  0  0
  -84.7463   32.1736   -0.1878 C   0  0  0  0  0  0  0  0  0  0  0  0
  -83.4904   32.5357    0.0738 N   0  0  0  0  0  0  0  0  0  0  0  0
  -87.5712   30.8539   -0.5122 C   0  0  0  0  0  0  0  0  0  0  0  0
  -87.6473   30.4139   -1.9515 C   0  0  0  0  0  0  0  0  0  0  0  0
  -88.2133   31.5674   -2.7301 C   0  0  0  0  0  0  0  0  0  0  0  0
  -88.2195   32.7690   -1.8386 C   0  0  0  0  0  0  0  0  0  0  0  0
  -87.6566   32.3471   -0.5018 C   0  0  0  0  0  0  0  0  0  0  0  0
  -87.9109   26.0108    1.8986 N   0  0  0  0  0  0  0  0  0  0  0  0
  -87.7700   25.3603    2.7013 H   0  0  0  0  0  0  0  0  0  0  0  0
  -89.0270   25.8403    1.0463 C   0  0  0  0  0  0  0  0  0  0  0  0
  -88.9896   25.0991   -0.1126 C   0  0  0  0  0  0  0  0  0  0  0  0
  -90.1031   24.9521   -0.9262 C   0  0  0  0  0  0  0  0  0  0  0  0
  -91.2864   25.5638   -0.5703 C   0  0  0  0  0  0  0  0  0  0  0  0
  -91.2751   26.2830    0.5790 N   0  0  0  0  0  0  0  0  0  0  0  0
  -90.2040   26.4128    1.3433 N   0  0  0  0  0  0  0  0  0  0  0  0
  -92.4660   25.4553   -1.3572 N   0  0  0  0  0  0  0  0  0  0  0  0
  -92.9660   24.5571   -1.4105 H   0  0  0  0  0  0  0  0  0  0  0  0
  -92.9634   26.6033   -2.0810 C   0  0  0  0  0  0  0  0  0  0  0  0
  -91.9616   27.0989   -3.1012 C   0  0  0  0  0  0  0  0  0  0  0  0
  -92.6384   27.6777   -4.3236 C   0  0  0  0  0  0  0  0  0  0  0  0
  -91.6940   28.7925   -4.3041 N   0  0  0  0  0  0  0  0  0  0  0  0
  -91.4982   28.5167   -2.8804 C   0  0  0  0  0  0  0  0  0  0  0  0
  -92.2016   29.7095   -4.4043 H   0  0  0  0  0  0  0  0  0  0  0  0
  1  2  2  0  0  0
  2  3  1  0  0  0
  3  4  1  0  0  0
  4  5  2  0  0  0
  5  6  1  0  0  0
  6  7  2  0  0  0
  7 19  1  0  0  0
 19 21  1  0  0  0
 21 22  2  0  0  0
 22 23  1  0  0  0
 23 24  2  0  0  0
 24 27  1  0  0  0
 27 29  1  0  0  0
 29 30  1  0  0  0
 30 31  1  0  0  0
 31 32  1  0  0  0
 32 33  1  0  0  0
 24 25  1  0  0  0
 25 26  2  0  0  0
  7  8  1  0  0  0
  8  9  2  0  0  0
  9 10  1  0  0  0
 10 14  1  0  0  0
 14 15  1  0  0  0
 15 16  1  0  0  0
 16 17  1  0  0  0
 17 18  1  0  0  0
 10 11  1  0  0  0
 11 12  1  0  0  0
 12 13  2  0  0  0
 13  1  1  0  0  0
 11  3  2  0  0  0
  9  4  1  0  0  0
 18 14  1  0  0  0
 26 21  1  0  0  0
 33 30  1  0  0  0
 19 20  1  0  0  0
 27 28  1  0  0  0
 32 34  1  0  0  0
M  END
> <minimizedAffinity>
-8.75789

> <CNNscore>
0.1166609153

> <CNNaffinity>
6.6279816628

> <CNN_VS>
0.7732263803

> <CNNaffinity_variance>
0.3706954718

$$$$
[H]c1nc([H])c2c(c1[H])c1c([H])nc(N([H])c3nnc(N([H])C([H])([H])C4([H])C([H])([H])N([H])C4([H])[H])c([H])c3[H])nc1n2C1([H])C([H])([H])C([H])([H])C([H])([H])C1([H])[H]


 34 39  0  0  0  0  0  0  0  0999 V2000
  -82.6380   31.7899    0.8005 C   0  0  0  0  0  0  0  0  0  0  0  0
  -83.0979   30.5714    1.2667 C   0  0  0  0  0  0  0  0  0  0  0  0
  -84.3867   30.1741    0.9832 C   0  0  0  0  0  0  0  0  0  0  0  0
  -85.0761   29.0420    1.3162 C   0  0  0  0  0  0  0  0  0  0  0  0
  -84.7815   27.8872    2.0374 C   0  0  0  0  0  0  0  0  0  0  0  0
  -85.7283   26.9456    2.1716 N   0  0  0  0  0  0  0  0  0  0  0  0
  -86.9664   27.0494    1.6433 C   0  0  0  0  0  0  0  0  0  0  0  0
  -87.2756   28.1523    0.9436 N   0  0  0  0  0  0  0  0  0  0  0  0
  -86.3454   29.1242    0.7872 C   0  0  0  0  0  0  0  0  0  0  0  0
  -86.4139   30.3193    0.1312 N   0  0  0  0  0  0  0  0  0  0  0  0
  -85.2438   30.9573    0.2425 C   0  0  0  0  0  0  0  0  0  0  0  0
  -84.7523   32.1661   -0.2066 C   0  0  0  0  0  0  0  0  0  0  0  0
  -83.5031   32.5352    0.0767 N   0  0  0  0  0  0  0  0  0  0  0  0
  -87.5641   30.8311   -0.5786 C   0  0  0  0  0  0  0  0  0  0  0  0
  -87.5805   30.4382   -2.0333 C   0  0  0  0  0  0  0  0  0  0  0  0
  -88.1515   31.6023   -2.7924 C   0  0  0  0  0  0  0  0  0  0  0  0
  -88.2198   32.7725   -1.8626 C   0  0  0  0  0  0  0  0  0  0  0  0
  -87.6903   32.3205   -0.5219 C   0  0  0  0  0  0  0  0  0  0  0  0
  -87.9219   25.9911    1.8356 N   0  0  0  0  0  0  0  0  0  0  0  0
  -87.7728   25.3219    2.6213 H   0  0  0  0  0  0  0  0  0  0  0  0
  -89.0467   25.8407    0.9910 C   0  0  0  0  0  0  0  0  0  0  0  0
  -89.0162   25.1442   -0.1953 C   0  0  0  0  0  0  0  0  0  0  0  0
  -90.1382   25.0159   -1.0004 C   0  0  0  0  0  0  0  0  0  0  0  0
  -91.3232   25.6008   -0.6072 C   0  0  0  0  0  0  0  0  0  0  0  0
  -91.3050   26.2762    0.5682 N   0  0  0  0  0  0  0  0  0  0  0  0
  -90.2258   26.3888    1.3238 N   0  0  0  0  0  0  0  0  0  0  0  0
  -92.5115   25.5092   -1.3832 N   0  0  0  0  0  0  0  0  0  0  0  0
  -92.6639   26.1596   -2.1663 H   0  0  0  0  0  0  0  0  0  0  0  0
  -93.5041   24.5049   -1.0742 C   0  0  0  0  0  0  0  0  0  0  0  0
  -93.6695   23.5143   -2.2062 C   0  0  0  0  0  0  0  0  0  0  0  0
  -92.8136   23.8722   -3.4006 C   0  0  0  0  0  0  0  0  0  0  0  0
  -92.4326   22.4678   -3.5335 N   0  0  0  0  0  0  0  0  0  0  0  0
  -92.7650   22.3111   -2.1171 C   0  0  0  0  0  0  0  0  0  0  0  0
  -91.3900   22.3764   -3.6484 H   0  0  0  0  0  0  0  0  0  0  0  0
  1  2  2  0  0  0
  2  3  1  0  0  0
  3  4  1  0  0  0
  4  5  2  0  0  0
  5  6  1  0  0  0
  6  7  2  0  0  0
  7 19  1  0  0  0
 19 21  1  0  0  0
 21 22  2  0  0  0
 22 23  1  0  0  0
 23 24  2  0  0  0
 24 27  1  0  0  0
 27 29  1  0  0  0
 29 30  1  0  0  0
 30 31  1  0  0  0
 31 32  1  0  0  0
 32 33  1  0  0  0
 24 25  1  0  0  0
 25 26  2  0  0  0
  7  8  1  0  0  0
  8  9  2  0  0  0
  9 10  1  0  0  0
 10 14  1  0  0  0
 14 15  1  0  0  0
 15 16  1  0  0  0
 16 17  1  0  0  0
 17 18  1  0  0  0
 10 11  1  0  0  0
 11 12  1  0  0  0
 12 13  2  0  0  0
 13  1  1  0  0  0
 11  3  2  0  0  0
  9  4  1  0  0  0
 18 14  1  0  0  0
 26 21  1  0  0  0
 33 30  1  0  0  0
 19 20  1  0  0  0
 27 28  1  0  0  0
 32 34  1  0  0  0
M  END
> <minimizedAffinity>
-8.74733

> <CNNscore>
0.0925362930

> <CNNaffinity>
6.4412870407

> <CNN_VS>
0.5960528255

> <CNNaffinity_variance>
0.4248085916

$$$$
[H]c1nc([H])c2c(c1[H])c1c([H])nc(N([H])c3nnc(N([H])C([H])([H])C4([H])C([H])([H])N([H])C4([H])[H])c([H])c3[H])nc1n2C1([H])C([H])([H])C([H])([H])C([H])([H])C1([H])[H]


 34 39  0  0  0  0  0  0  0  0999 V2000
  -82.9912   31.5684    0.9316 C   0  0  0  0  0  0  0  0  0  0  0  0
  -84.0738   30.7091    0.9895 C   0  0  0  0  0  0  0  0  0  0  0  0
  -85.2063   30.9871    0.2551 C   0  0  0  0  0  0  0  0  0  0  0  0
  -86.3915   30.3172    0.1357 C   0  0  0  0  0  0  0  0  0  0  0  0
  -86.9175   29.1449    0.6738 C   0  0  0  0  0  0  0  0  0  0  0  0
  -88.1589   28.7707    0.3275 N   0  0  0  0  0  0  0  0  0  0  0  0
  -88.9410   29.4699   -0.5224 C   0  0  0  0  0  0  0  0  0  0  0  0
  -88.4577   30.6032   -1.0549 N   0  0  0  0  0  0  0  0  0  0  0  0
  -87.2085   31.0125   -0.7285 C   0  0  0  0  0  0  0  0  0  0  0  0
  -86.5024   32.1099   -1.1291 N   0  0  0  0  0  0  0  0  0  0  0  0
  -85.2995   32.1043   -0.5447 C   0  0  0  0  0  0  0  0  0  0  0  0
  -84.2014   32.9395   -0.5789 C   0  0  0  0  0  0  0  0  0  0  0  0
  -83.1137   32.6558    0.1377 N   0  0  0  0  0  0  0  0  0  0  0  0
  -86.9672   33.1292   -2.0421 C   0  0  0  0  0  0  0  0  0  0  0  0
  -88.2511   33.7789   -1.5944 C   0  0  0  0  0  0  0  0  0  0  0  0
  -89.0518   34.0607   -2.8340 C   0  0  0  0  0  0  0  0  0  0  0  0
  -88.3993   33.3507   -3.9780 C   0  0  0  0  0  0  0  0  0  0  0  0
  -87.1866   32.6317   -3.4355 C   0  0  0  0  0  0  0  0  0  0  0  0
  -90.2619   28.9961   -0.8398 N   0  0  0  0  0  0  0  0  0  0  0  0
  -90.8664   29.5811   -1.4561 H   0  0  0  0  0  0  0  0  0  0  0  0
  -90.7525   27.7673   -0.3394 C   0  0  0  0  0  0  0  0  0  0  0  0
  -90.7506   27.4379    0.9967 C   0  0  0  0  0  0  0  0  0  0  0  0
  -91.2397   26.2234    1.4541 C   0  0  0  0  0  0  0  0  0  0  0  0
  -91.7444   25.3136    0.5495 C   0  0  0  0  0  0  0  0  0  0  0  0
  -91.7256   25.6820   -0.7552 N   0  0  0  0  0  0  0  0  0  0  0  0
  -91.2554   26.8445   -1.1742 N   0  0  0  0  0  0  0  0  0  0  0  0
  -92.2617   24.0504    0.9485 N   0  0  0  0  0  0  0  0  0  0  0  0
  -93.0062   24.0019    1.6576 H   0  0  0  0  0  0  0  0  0  0  0  0
  -91.7441   22.8359    0.3599 C   0  0  0  0  0  0  0  0  0  0  0  0
  -90.2718   22.6527    0.6577 C   0  0  0  0  0  0  0  0  0  0  0  0
  -89.9044   21.1945    0.8189 C   0  0  0  0  0  0  0  0  0  0  0  0
  -88.7086   21.4185    0.0095 N   0  0  0  0  0  0  0  0  0  0  0  0
  -89.3943   22.5759   -0.5663 C   0  0  0  0  0  0  0  0  0  0  0  0
  -88.6185   20.6757   -0.7312 H   0  0  0  0  0  0  0  0  0  0  0  0
  1  2  2  0  0  0
  2  3  1  0  0  0
  3  4  1  0  0  0
  4  5  2  0  0  0
  5  6  1  0  0  0
  6  7  2  0  0  0
  7 19  1  0  0  0
 19 21  1  0  0  0
 21 22  2  0  0  0
 22 23  1  0  0  0
 23 24  2  0  0  0
 24 27  1  0  0  0
 27 29  1  0  0  0
 29 30  1  0  0  0
 30 31  1  0  0  0
 31 32  1  0  0  0
 32 33  1  0  0  0
 24 25  1  0  0  0
 25 26  2  0  0  0
  7  8  1  0  0  0
  8  9  2  0  0  0
  9 10  1  0  0  0
 10 14  1  0  0  0
 14 15  1  0  0  0
 15 16  1  0  0  0
 16 17  1  0  0  0
 17 18  1  0  0  0
 10 11  1  0  0  0
 11 12  1  0  0  0
 12 13  2  0  0  0
 13  1  1  0  0  0
 11  3  2  0  0  0
  9  4  1  0  0  0
 18 14  1  0  0  0
 26 21  1  0  0  0
 33 30  1  0  0  0
 19 20  1  0  0  0
 27 28  1  0  0  0
 32 34  1  0  0  0
M  END
> <minimizedAffinity>
-7.83442

> <CNNscore>
0.0785143673

> <CNNaffinity>
6.5047750473

> <CNN_VS>
0.5107182860

> <CNNaffinity_variance>
0.1917879730

$$$$
[H]c1nc([H])c2c(c1[H])c1c([H])nc(N([H])c3nnc(N([H])C([H])([H])C4([H])C([H])([H])N([H])C4([H])[H])c([H])c3[H])nc1n2C1([H])C([H])([H])C([H])([H])C([H])([H])C1([H])[H]


 34 39  0  0  0  0  0  0  0  0999 V2000
  -82.9243   31.5959    1.1556 C   0  0  0  0  0  0  0  0  0  0  0  0
  -83.9975   32.2341    0.5602 C   0  0  0  0  0  0  0  0  0  0  0  0
  -85.1267   31.5134    0.2366 C   0  0  0  0  0  0  0  0  0  0  0  0
  -86.3031   31.8926   -0.3465 C   0  0  0  0  0  0  0  0  0  0  0  0
  -86.8204   33.0931   -0.8278 C   0  0  0  0  0  0  0  0  0  0  0  0
  -88.0545   33.1040   -1.3552 N   0  0  0  0  0  0  0  0  0  0  0  0
  -88.8370   32.0079   -1.4497 C   0  0  0  0  0  0  0  0  0  0  0  0
  -88.3621   30.8385   -0.9931 N   0  0  0  0  0  0  0  0  0  0  0  0
  -87.1205   30.7890   -0.4540 C   0  0  0  0  0  0  0  0  0  0  0  0
  -86.4234   29.7392    0.0709 N   0  0  0  0  0  0  0  0  0  0  0  0
  -85.2256   30.1631    0.4883 C   0  0  0  0  0  0  0  0  0  0  0  0
  -84.1369   29.5587    1.0830 C   0  0  0  0  0  0  0  0  0  0  0  0
  -83.0523   30.2705    1.3896 N   0  0  0  0  0  0  0  0  0  0  0  0
  -86.8919   28.3755    0.1684 C   0  0  0  0  0  0  0  0  0  0  0  0
  -87.2123   27.7663   -1.1722 C   0  0  0  0  0  0  0  0  0  0  0  0
  -88.4070   26.8775   -0.9722 C   0  0  0  0  0  0  0  0  0  0  0  0
  -88.9675   27.1543    0.3871 C   0  0  0  0  0  0  0  0  0  0  0  0
  -88.1068   28.2184    1.0266 C   0  0  0  0  0  0  0  0  0  0  0  0
  -90.1496   32.1087   -2.0301 N   0  0  0  0  0  0  0  0  0  0  0  0
  -90.6148   33.0418   -2.0511 H   0  0  0  0  0  0  0  0  0  0  0  0
  -90.8151   30.9818   -2.5669 C   0  0  0  0  0  0  0  0  0  0  0  0
  -91.5532   30.1039   -1.8066 C   0  0  0  0  0  0  0  0  0  0  0  0
  -92.1936   29.0078   -2.3652 C   0  0  0  0  0  0  0  0  0  0  0  0
  -92.0924   28.7842   -3.7219 C   0  0  0  0  0  0  0  0  0  0  0  0
  -91.3552   29.6752   -4.4296 N   0  0  0  0  0  0  0  0  0  0  0  0
  -90.7509   30.7154   -3.8808 N   0  0  0  0  0  0  0  0  0  0  0  0
  -92.7228   27.6810   -4.3607 N   0  0  0  0  0  0  0  0  0  0  0  0
  -92.1504   26.9268   -4.7644 H   0  0  0  0  0  0  0  0  0  0  0  0
  -94.1644   27.6175   -4.4433 C   0  0  0  0  0  0  0  0  0  0  0  0
  -94.6396   27.5271   -5.8772 C   0  0  0  0  0  0  0  0  0  0  0  0
  -95.0665   28.8737   -6.4176 C   0  0  0  0  0  0  0  0  0  0  0  0
  -94.3614   28.5838   -7.6641 N   0  0  0  0  0  0  0  0  0  0  0  0
  -93.5415   27.6391   -6.9047 C   0  0  0  0  0  0  0  0  0  0  0  0
  -93.7607   29.4006   -7.9481 H   0  0  0  0  0  0  0  0  0  0  0  0
  1  2  2  0  0  0
  2  3  1  0  0  0
  3  4  1  0  0  0
  4  5  2  0  0  0
  5  6  1  0  0  0
  6  7  2  0  0  0
  7 19  1  0  0  0
 19 21  1  0  0  0
 21 22  2  0  0  0
 22 23  1  0  0  0
 23 24  2  0  0  0
 24 27  1  0  0  0
 27 29  1  0  0  0
 29 30  1  0  0  0
 30 31  1  0  0  0
 31 32  1  0  0  0
 32 33  1  0  0  0
 24 25  1  0  0  0
 25 26  2  0  0  0
  7  8  1  0  0  0
  8  9  2  0  0  0
  9 10  1  0  0  0
 10 14  1  0  0  0
 14 15  1  0  0  0
 15 16  1  0  0  0
 16 17  1  0  0  0
 17 18  1  0  0  0
 10 11  1  0  0  0
 11 12  1  0  0  0
 12 13  2  0  0  0
 13  1  1  0  0  0
 11  3  2  0  0  0
  9  4  1  0  0  0
 18 14  1  0  0  0
 26 21  1  0  0  0
 33 30  1  0  0  0
 19 20  1  0  0  0
 27 28  1  0  0  0
 32 34  1  0  0  0
M  END
> <minimizedAffinity>
-7.82519

> <CNNscore>
0.0683845282

> <CNNaffinity>
6.1014776230

> <CNN_VS>
0.4172466695

> <CNNaffinity_variance>
0.2600796819

$$$$
[H]Oc1c([H])c([H])c(C([H])([H])[C@@]2([H])C(=O)N(C([H])([H])c3c([H])c([H])c([H])c4c(C(=O)N([H])c5c([H])nc(N6C([H])([H])C([H])([H])C([H])(N7C([H])([H])C([H])([H])C7([H])[H])C([H])([H])C6([H])[H])c([H])c5[H])c([H])n(C([H])([H])[H])c34)C([H])([H])[C@]3([H])N(C(=O)N([H])C([H])([H])c4c([H])c([H])c([H])c([H])c4[H])N(C([H])([H])C([H])=C([H])[H])C([H])([H])C(=O)N23)c([H])c1[H]


 66 74  0  0  0  0  0  0  0  0999 V2000
  -90.5470   31.5298   -3.8855 N   0  0  0  0  0  0  0  0  0  0  0  0
  -89.7368   30.3514   -4.1364 C   0  0  0  0  0  0  0  0  0  0  0  0
  -89.5180   29.8074   -2.7347 C   0  0  0  0  0  0  0  0  0  0  0  0
  -88.3439   29.5652   -2.4012 O   0  0  0  0  0  0  0  0  0  0  0  0
  -90.6200   29.6038   -1.9042 N   0  0  0  0  0  0  0  0  0  0  0  0
  -90.5702   28.6375   -0.8444 C   0  0  0  0  0  0  0  0  0  0  0  0
  -91.4183   27.5133   -1.3913 C   0  0  0  0  0  0  0  0  0  0  0  0
  -91.0775   26.3492   -1.2694 O   0  0  0  0  0  0  0  0  0  0  0  0
  -92.6148   27.8707   -2.0436 N   0  0  0  0  0  0  0  0  0  0  0  0
  -92.9966   29.2856   -2.2727 C   0  0  0  0  0  0  0  0  0  0  0  0
  -91.8771   30.2635   -2.1390 C   0  0  0  0  0  0  0  0  0  0  0  0
  -91.7407   31.2528   -3.1833 N   0  0  0  0  0  0  0  0  0  0  0  0
  -92.8473   32.0701   -3.5717 C   0  0  0  0  0  0  0  0  0  0  0  0
  -92.6521   32.8745   -4.5442 O   0  0  0  0  0  0  0  0  0  0  0  0
  -94.1274   32.0946   -3.0048 N   0  0  0  0  0  0  0  0  0  0  0  0
  -94.3706   31.4916   -2.2185 H   0  0  0  0  0  0  0  0  0  0  0  0
  -89.6605   32.4160   -3.1465 C   0  0  0  0  0  0  0  0  0  0  0  0
  -89.2274   34.8008   -3.2784 C   0  0  0  0  0  0  0  0  0  0  0  0
  -89.2893   33.6247   -3.8426 C   0  0  0  0  0  0  0  0  0  0  0  0
  -91.0026   29.0305    0.5044 C   0  0  0  0  0  0  0  0  0  0  0  0
  -90.5961   28.2253    1.6588 C   0  0  0  0  0  0  0  0  0  0  0  0
  -91.1755   28.4407    2.9106 C   0  0  0  0  0  0  0  0  0  0  0  0
  -90.7516   27.7330    4.0150 C   0  0  0  0  0  0  0  0  0  0  0  0
  -89.7467   26.7884    3.9525 C   0  0  0  0  0  0  0  0  0  0  0  0
  -89.3706   26.1118    5.0974 O   0  0  0  0  0  0  0  0  0  0  0  0
  -89.1755   26.5753    2.7290 C   0  0  0  0  0  0  0  0  0  0  0  0
  -89.5937   27.2834    1.6024 C   0  0  0  0  0  0  0  0  0  0  0  0
  -89.8036   26.2770    5.9995 H   0  0  0  0  0  0  0  0  0  0  0  0
  -93.5711   26.9034   -2.5849 C   0  0  0  0  0  0  0  0  0  0  0  0
  -93.6632   27.0766   -4.0379 C   0  0  0  0  0  0  0  0  0  0  0  0
  -92.5606   26.9842   -4.8464 C   0  0  0  0  0  0  0  0  0  0  0  0
  -92.6286   27.2024   -6.2118 C   0  0  0  0  0  0  0  0  0  0  0  0
  -93.8389   27.5240   -6.7983 C   0  0  0  0  0  0  0  0  0  0  0  0
  -94.9729   27.6193   -5.9816 C   0  0  0  0  0  0  0  0  0  0  0  0
  -96.2690   27.8897   -6.2680 C   0  0  0  0  0  0  0  0  0  0  0  0
  -96.9543   27.8269   -5.0886 C   0  0  0  0  0  0  0  0  0  0  0  0
  -96.1323   27.5287   -4.0671 N   0  0  0  0  0  0  0  0  0  0  0  0
  -96.5042   27.3791   -2.6821 C   0  0  0  0  0  0  0  0  0  0  0  0
  -94.8891   27.3985   -4.6122 C   0  0  0  0  0  0  0  0  0  0  0  0
  -96.9073   28.2359   -7.5844 C   0  0  0  0  0  0  0  0  0  0  0  0
  -97.6985   27.4248   -8.1111 O   0  0  0  0  0  0  0  0  0  0  0  0
  -96.5593   29.4854   -8.1295 N   0  0  0  0  0  0  0  0  0  0  0  0
  -97.6013   29.3193   -9.0196 H   0  0  0  0  0  0  0  0  0  0  0  0
  -96.2485   30.6406   -8.6498 C   0  0  0  0  0  0  0  0  0  0  0  0
  -97.2155   31.3771   -9.3650 C   0  0  0  0  0  0  0  0  0  0  0  0
  -96.9811   32.5704   -9.9400 C   0  0  0  0  0  0  0  0  0  0  0  0
  -95.7211   33.1138   -9.8355 C   0  0  0  0  0  0  0  0  0  0  0  0
  -94.7391   32.4679   -9.1665 N   0  0  0  0  0  0  0  0  0  0  0  0
  -94.9870   31.2710   -8.5862 C   0  0  0  0  0  0  0  0  0  0  0  0
  -95.3882   34.3529  -10.4686 N   0  0  0  0  0  0  0  0  0  0  0  0
  -96.4524   35.1744  -10.9903 C   0  0  0  0  0  0  0  0  0  0  0  0
  -96.2818   36.6403  -10.8337 C   0  0  0  0  0  0  0  0  0  0  0  0
  -94.9377   37.0913  -10.3820 C   0  0  0  0  0  0  0  0  0  0  0  0
  -93.8099   36.1850  -10.8649 C   0  0  0  0  0  0  0  0  0  0  0  0
  -94.0130   34.7448  -10.6020 C   0  0  0  0  0  0  0  0  0  0  0  0
  -94.5764   38.4174  -10.7378 N   0  0  0  0  0  0  0  0  0  0  0  0
  -94.5543   38.7422  -12.1278 C   0  0  0  0  0  0  0  0  0  0  0  0
  -93.4955   39.7776  -11.8062 C   0  0  0  0  0  0  0  0  0  0  0  0
  -93.2573   38.9023  -10.5774 C   0  0  0  0  0  0  0  0  0  0  0  0
  -95.1634   32.9930   -3.5068 C   0  0  0  0  0  0  0  0  0  0  0  0
  -95.6604   33.8924   -2.4017 C   0  0  0  0  0  0  0  0  0  0  0  0
  -95.6709   35.2365   -2.5774 C   0  0  0  0  0  0  0  0  0  0  0  0
  -96.1019   36.0698   -1.5147 C   0  0  0  0  0  0  0  0  0  0  0  0
  -96.5060   35.4969   -0.3094 C   0  0  0  0  0  0  0  0  0  0  0  0
  -96.4508   34.0904   -0.2397 C   0  0  0  0  0  0  0  0  0  0  0  0
  -96.0530   33.3003   -1.2289 C   0  0  0  0  0  0  0  0  0  0  0  0
 18 19  2  0  0  0
 19 17  1  0  0  0
 17  1  1  0  0  0
  1  2  1  0  0  0
  2  3  1  0  0  0
  3  4  2  0  0  0
  3  5  1  0  0  0
  5  6  1  0  0  0
  6 20  1  0  0  0
 20 21  1  0  0  0
 21 22  2  0  0  0
 22 23  1  0  0  0
 23 24  2  0  0  0
 24 25  1  0  0  0
 24 26  1  0  0  0
 26 27  2  0  0  0
  6  7  1  0  0  0
  7  8  2  0  0  0
  7  9  1  0  0  0
  9 29  1  0  0  0
 29 30  1  0  0  0
 30 31  2  0  0  0
 31 32  1  0  0  0
 32 33  2  0  0  0
 33 34  1  0  0  0
 34 35  1  0  0  0
 35 40  1  0  0  0
 40 41  2  0  0  0
 40 42  1  0  0  0
 42 44  1  0  0  0
 44 45  2  0  0  0
 45 46  1  0  0  0
 46 47  2  0  0  0
 47 50  1  0  0  0
 50 51  1  0  0  0
 51 52  1  0  0  0
 52 53  1  0  0  0
 53 56  1  0  0  0
 56 57  1  0  0  0
 57 58  1  0  0  0
 58 59  1  0  0  0
 53 54  1  0  0  0
 54 55  1  0  0  0
 47 48  1  0  0  0
 48 49  2  0  0  0
 35 36  2  0  0  0
 36 37  1  0  0  0
 37 38  1  0  0  0
 37 39  1  0  0  0
  9 10  1  0  0  0
 10 11  1  0  0  0
 11 12  1  0  0  0
 12 13  1  0  0  0
 13 14  2  0  0  0
 13 15  1  0  0  0
 15 60  1  0  0  0
 60 61  1  0  0  0
 61 62  2  0  0  0
 62 63  1  0  0  0
 63 64  2  0  0  0
 64 65  1  0  0  0
 65 66  2  0  0  0
 12  1  1  0  0  0
 66 61  1  0  0  0
 11  5  1  0  0  0
 27 21  1  0  0  0
 39 30  1  0  0  0
 39 34  2  0  0  0
 49 44  1  0  0  0
 55 50  1  0  0  0
 59 56  1  0  0  0
 25 28  1  0  0  0
 42 43  1  0  0  0
 15 16  1  0  0  0
M  END
> <minimizedAffinity>
-7.59610

> <CNNscore>
0.0471119806

> <CNNaffinity>
6.8506784439

> <CNN_VS>
0.3227490187

> <CNNaffinity_variance>
0.4573983550

$$$$
[H]Oc1c([H])c([H])c(C([H])([H])[C@@]2([H])C(=O)N(C([H])([H])c3c([H])c([H])c([H])c4c(C(=O)N([H])c5c([H])nc(N6C([H])([H])C([H])([H])C([H])(N7C([H])([H])C([H])([H])C7([H])[H])C([H])([H])C6([H])[H])c([H])c5[H])c([H])n(C([H])([H])[H])c34)C([H])([H])[C@]3([H])N(C(=O)N([H])C([H])([H])c4c([H])c([H])c([H])c([H])c4[H])N(C([H])([H])C([H])=C([H])[H])C([H])([H])C(=O)N23)c([H])c1[H]


 66 74  0  0  0  0  0  0  0  0999 V2000
  -88.5699   33.8550   -2.8390 N   0  0  0  0  0  0  0  0  0  0  0  0
  -89.9949   33.8930   -2.5635 C   0  0  0  0  0  0  0  0  0  0  0  0
  -90.4734   32.5820   -3.1642 C   0  0  0  0  0  0  0  0  0  0  0  0
  -91.4337   32.6412   -3.9534 O   0  0  0  0  0  0  0  0  0  0  0  0
  -89.8317   31.3960   -2.8079 N   0  0  0  0  0  0  0  0  0  0  0  0
  -90.5204   30.1391   -2.8827 C   0  0  0  0  0  0  0  0  0  0  0  0
  -90.7911   29.8315   -1.4287 C   0  0  0  0  0  0  0  0  0  0  0  0
  -91.8680   29.3887   -1.0675 O   0  0  0  0  0  0  0  0  0  0  0  0
  -89.7469   30.0771   -0.5154 N   0  0  0  0  0  0  0  0  0  0  0  0
  -88.4641   30.6950   -0.9308 C   0  0  0  0  0  0  0  0  0  0  0  0
  -88.5051   31.3908   -2.2505 C   0  0  0  0  0  0  0  0  0  0  0  0
  -87.9256   32.7129   -2.3144 N   0  0  0  0  0  0  0  0  0  0  0  0
  -86.5938   32.9555   -1.8555 C   0  0  0  0  0  0  0  0  0  0  0  0
  -86.1859   34.1651   -1.8936 O   0  0  0  0  0  0  0  0  0  0  0  0
  -85.6768   32.0156   -1.3693 N   0  0  0  0  0  0  0  0  0  0  0  0
  -85.9138   31.0250   -1.3107 H   0  0  0  0  0  0  0  0  0  0  0  0
  -88.4900   33.9207   -4.2905 C   0  0  0  0  0  0  0  0  0  0  0  0
  -87.5652   35.7690   -5.5636 C   0  0  0  0  0  0  0  0  0  0  0  0
  -88.5243   35.2539   -4.8423 C   0  0  0  0  0  0  0  0  0  0  0  0
  -89.8733   29.0068   -3.5609 C   0  0  0  0  0  0  0  0  0  0  0  0
  -90.2458   27.6369   -3.1991 C   0  0  0  0  0  0  0  0  0  0  0  0
  -91.4604   27.0978   -3.6271 C   0  0  0  0  0  0  0  0  0  0  0  0
  -91.8476   25.8339   -3.2361 C   0  0  0  0  0  0  0  0  0  0  0  0
  -91.0745   25.0406   -2.4120 C   0  0  0  0  0  0  0  0  0  0  0  0
  -91.5201   23.7808   -2.0594 O   0  0  0  0  0  0  0  0  0  0  0  0
  -89.8851   25.5651   -1.9893 C   0  0  0  0  0  0  0  0  0  0  0  0
  -89.4795   26.8422   -2.3766 C   0  0  0  0  0  0  0  0  0  0  0  0
  -92.4038   23.4015   -2.3813 H   0  0  0  0  0  0  0  0  0  0  0  0
  -89.8290   29.7875    0.9173 C   0  0  0  0  0  0  0  0  0  0  0  0
  -89.1283   28.5304    1.1968 C   0  0  0  0  0  0  0  0  0  0  0  0
  -88.0434   28.1305    0.4612 C   0  0  0  0  0  0  0  0  0  0  0  0
  -87.4109   26.9189    0.6812 C   0  0  0  0  0  0  0  0  0  0  0  0
  -87.8726   26.0709    1.6712 C   0  0  0  0  0  0  0  0  0  0  0  0
  -88.9798   26.4702    2.4305 C   0  0  0  0  0  0  0  0  0  0  0  0
  -89.6286   25.8742    3.4595 C   0  0  0  0  0  0  0  0  0  0  0  0
  -90.6256   26.7252    3.8422 C   0  0  0  0  0  0  0  0  0  0  0  0
  -90.6287   27.8373    3.0863 N   0  0  0  0  0  0  0  0  0  0  0  0
  -91.5356   28.9520    3.2039 C   0  0  0  0  0  0  0  0  0  0  0  0
  -89.6051   27.6892    2.1976 C   0  0  0  0  0  0  0  0  0  0  0  0
  -89.3905   24.5321    4.0935 C   0  0  0  0  0  0  0  0  0  0  0  0
  -88.6659   24.4564    5.1086 O   0  0  0  0  0  0  0  0  0  0  0  0
  -90.0283   23.4379    3.4805 N   0  0  0  0  0  0  0  0  0  0  0  0
  -89.7033   22.6988    4.6002 H   0  0  0  0  0  0  0  0  0  0  0  0
  -90.6121   22.4118    2.9255 C   0  0  0  0  0  0  0  0  0  0  0  0
  -90.2465   21.1023    3.3003 C   0  0  0  0  0  0  0  0  0  0  0  0
  -90.7892   19.9886    2.7761 C   0  0  0  0  0  0  0  0  0  0  0  0
  -91.7586   20.1229    1.8086 C   0  0  0  0  0  0  0  0  0  0  0  0
  -92.1627   21.3454    1.3948 N   0  0  0  0  0  0  0  0  0  0  0  0
  -91.6149   22.4594    1.9331 C   0  0  0  0  0  0  0  0  0  0  0  0
  -92.3389   18.9814    1.1705 N   0  0  0  0  0  0  0  0  0  0  0  0
  -93.7351   18.6967    1.3920 C   0  0  0  0  0  0  0  0  0  0  0  0
  -94.4889   18.1793    0.2230 C   0  0  0  0  0  0  0  0  0  0  0  0
  -93.6687   17.7905   -0.9561 C   0  0  0  0  0  0  0  0  0  0  0  0
  -92.2887   17.2636   -0.5763 C   0  0  0  0  0  0  0  0  0  0  0  0
  -91.5267   18.1263    0.3510 C   0  0  0  0  0  0  0  0  0  0  0  0
  -94.2481   16.8283   -1.8247 N   0  0  0  0  0  0  0  0  0  0  0  0
  -94.0183   16.9840   -3.2250 C   0  0  0  0  0  0  0  0  0  0  0  0
  -95.3432   16.2860   -3.4576 C   0  0  0  0  0  0  0  0  0  0  0  0
  -95.6448   16.7558   -2.0358 C   0  0  0  0  0  0  0  0  0  0  0  0
  -84.3392   32.4121   -0.9378 C   0  0  0  0  0  0  0  0  0  0  0  0
  -83.8293   31.4713    0.1263 C   0  0  0  0  0  0  0  0  0  0  0  0
  -82.4957   31.2802    0.2769 C   0  0  0  0  0  0  0  0  0  0  0  0
  -82.0343   30.3620    1.2532 C   0  0  0  0  0  0  0  0  0  0  0  0
  -82.9551   29.6713    2.0401 C   0  0  0  0  0  0  0  0  0  0  0  0
  -84.3149   29.9479    1.7940 C   0  0  0  0  0  0  0  0  0  0  0  0
  -84.7584   30.8078    0.8858 C   0  0  0  0  0  0  0  0  0  0  0  0
 18 19  2  0  0  0
 19 17  1  0  0  0
 17  1  1  0  0  0
  1  2  1  0  0  0
  2  3  1  0  0  0
  3  4  2  0  0  0
  3  5  1  0  0  0
  5  6  1  0  0  0
  6 20  1  0  0  0
 20 21  1  0  0  0
 21 22  2  0  0  0
 22 23  1  0  0  0
 23 24  2  0  0  0
 24 25  1  0  0  0
 24 26  1  0  0  0
 26 27  2  0  0  0
  6  7  1  0  0  0
  7  8  2  0  0  0
  7  9  1  0  0  0
  9 29  1  0  0  0
 29 30  1  0  0  0
 30 31  2  0  0  0
 31 32  1  0  0  0
 32 33  2  0  0  0
 33 34  1  0  0  0
 34 35  1  0  0  0
 35 40  1  0  0  0
 40 41  2  0  0  0
 40 42  1  0  0  0
 42 44  1  0  0  0
 44 45  2  0  0  0
 45 46  1  0  0  0
 46 47  2  0  0  0
 47 50  1  0  0  0
 50 51  1  0  0  0
 51 52  1  0  0  0
 52 53  1  0  0  0
 53 56  1  0  0  0
 56 57  1  0  0  0
 57 58  1  0  0  0
 58 59  1  0  0  0
 53 54  1  0  0  0
 54 55  1  0  0  0
 47 48  1  0  0  0
 48 49  2  0  0  0
 35 36  2  0  0  0
 36 37  1  0  0  0
 37 38  1  0  0  0
 37 39  1  0  0  0
  9 10  1  0  0  0
 10 11  1  0  0  0
 11 12  1  0  0  0
 12 13  1  0  0  0
 13 14  2  0  0  0
 13 15  1  0  0  0
 15 60  1  0  0  0
 60 61  1  0  0  0
 61 62  2  0  0  0
 62 63  1  0  0  0
 63 64  2  0  0  0
 64 65  1  0  0  0
 65 66  2  0  0  0
 12  1  1  0  0  0
 66 61  1  0  0  0
 11  5  1  0  0  0
 27 21  1  0  0  0
 39 30  1  0  0  0
 39 34  2  0  0  0
 49 44  1  0  0  0
 55 50  1  0  0  0
 59 56  1  0  0  0
 25 28  1  0  0  0
 42 43  1  0  0  0
 15 16  1  0  0  0
M  END
> <minimizedAffinity>
-8.33777

> <CNNscore>
0.0403653644

> <CNNaffinity>
7.1176681519

> <CNN_VS>
0.2873072624

> <CNNaffinity_variance>
0.3329103589

$$$$
[H]Oc1c([H])c([H])c(C([H])([H])[C@@]2([H])C(=O)N(C([H])([H])c3c([H])c([H])c([H])c4c(C(=O)N([H])c5c([H])nc(N6C([H])([H])C([H])([H])C([H])(N7C([H])([H])C([H])([H])C7([H])[H])C([H])([H])C6([H])[H])c([H])c5[H])c([H])n(C([H])([H])[H])c34)C([H])([H])[C@]3([H])N(C(=O)N([H])C([H])([H])c4c([H])c([H])c([H])c([H])c4[H])N(C([H])([H])C([H])=C([H])[H])C([H])([H])C(=O)N23)c([H])c1[H]


 66 74  0  0  0  0  0  0  0  0999 V2000
  -94.5263   28.7061   -6.9004 N   0  0  0  0  0  0  0  0  0  0  0  0
  -94.8597   28.9875   -8.2852 C   0  0  0  0  0  0  0  0  0  0  0  0
  -96.1836   29.7216   -8.1543 C   0  0  0  0  0  0  0  0  0  0  0  0
  -97.1307   29.3027   -8.8441 O   0  0  0  0  0  0  0  0  0  0  0  0
  -96.2744   30.8117   -7.2889 N   0  0  0  0  0  0  0  0  0  0  0  0
  -97.2539   31.8383   -7.5038 C   0  0  0  0  0  0  0  0  0  0  0  0
  -96.4165   32.9788   -8.0332 C   0  0  0  0  0  0  0  0  0  0  0  0
  -96.7966   33.6579   -8.9716 O   0  0  0  0  0  0  0  0  0  0  0  0
  -95.1842   33.2206   -7.3946 N   0  0  0  0  0  0  0  0  0  0  0  0
  -94.6733   32.3485   -6.3091 C   0  0  0  0  0  0  0  0  0  0  0  0
  -95.3307   31.0115   -6.2212 C   0  0  0  0  0  0  0  0  0  0  0  0
  -94.4656   29.8615   -6.0903 N   0  0  0  0  0  0  0  0  0  0  0  0
  -93.4663   29.8047   -5.0699 C   0  0  0  0  0  0  0  0  0  0  0  0
  -92.7076   28.7774   -5.0672 O   0  0  0  0  0  0  0  0  0  0  0  0
  -93.2223   30.7481   -4.0643 N   0  0  0  0  0  0  0  0  0  0  0  0
  -93.7846   31.5958   -3.9850 H   0  0  0  0  0  0  0  0  0  0  0  0
  -95.5624   27.7794   -6.4701 C   0  0  0  0  0  0  0  0  0  0  0  0
  -96.3245   25.6065   -7.2381 C   0  0  0  0  0  0  0  0  0  0  0  0
  -95.3602   26.4091   -6.8758 C   0  0  0  0  0  0  0  0  0  0  0  0
  -98.0999   32.2677   -6.3811 C   0  0  0  0  0  0  0  0  0  0  0  0
  -98.5808   33.6504   -6.3239 C   0  0  0  0  0  0  0  0  0  0  0  0
  -98.0953   34.5284   -5.3531 C   0  0  0  0  0  0  0  0  0  0  0  0
  -98.5909   35.8106   -5.2510 C   0  0  0  0  0  0  0  0  0  0  0  0
  -99.5795   36.2947   -6.0844 C   0  0  0  0  0  0  0  0  0  0  0  0
 -100.0307   37.5919   -5.9303 O   0  0  0  0  0  0  0  0  0  0  0  0
 -100.0589   35.4378   -7.0354 C   0  0  0  0  0  0  0  0  0  0  0  0
  -99.5673   34.1377   -7.1512 C   0  0  0  0  0  0  0  0  0  0  0  0
  -99.6655   38.2193   -5.2221 H   0  0  0  0  0  0  0  0  0  0  0  0
  -94.2792   34.3145   -7.7518 C   0  0  0  0  0  0  0  0  0  0  0  0
  -93.7137   34.8924   -6.5287 C   0  0  0  0  0  0  0  0  0  0  0  0
  -94.5095   35.3185   -5.4976 C   0  0  0  0  0  0  0  0  0  0  0  0
  -93.9876   35.9170   -4.3638 C   0  0  0  0  0  0  0  0  0  0  0  0
  -92.6217   36.0990   -4.2479 C   0  0  0  0  0  0  0  0  0  0  0  0
  -91.7985   35.6656   -5.2950 C   0  0  0  0  0  0  0  0  0  0  0  0
  -90.4532   35.6887   -5.4519 C   0  0  0  0  0  0  0  0  0  0  0  0
  -90.1874   35.1079   -6.6588 C   0  0  0  0  0  0  0  0  0  0  0  0
  -91.3213   34.7218   -7.2697 N   0  0  0  0  0  0  0  0  0  0  0  0
  -91.4265   34.0743   -8.5536 C   0  0  0  0  0  0  0  0  0  0  0  0
  -92.3369   35.0672   -6.4277 C   0  0  0  0  0  0  0  0  0  0  0  0
  -89.3927   36.2527   -4.5478 C   0  0  0  0  0  0  0  0  0  0  0  0
  -89.1309   37.4733   -4.6014 O   0  0  0  0  0  0  0  0  0  0  0  0
  -88.7679   35.3361   -3.6823 N   0  0  0  0  0  0  0  0  0  0  0  0
  -88.2361   36.4213   -3.0151 H   0  0  0  0  0  0  0  0  0  0  0  0
  -88.1779   34.5006   -2.8726 C   0  0  0  0  0  0  0  0  0  0  0  0
  -88.9424   33.7263   -1.9755 C   0  0  0  0  0  0  0  0  0  0  0  0
  -88.4185   32.8475   -1.1021 C   0  0  0  0  0  0  0  0  0  0  0  0
  -87.0518   32.6900   -1.0686 C   0  0  0  0  0  0  0  0  0  0  0  0
  -86.2503   33.3975   -1.8969 N   0  0  0  0  0  0  0  0  0  0  0  0
  -86.7878   34.2742   -2.7763 C   0  0  0  0  0  0  0  0  0  0  0  0
  -86.4247   31.8132   -0.1279 N   0  0  0  0  0  0  0  0  0  0  0  0
  -87.0783   30.5723    0.2077 C   0  0  0  0  0  0  0  0  0  0  0  0
  -86.1898   29.4007    0.4093 C   0  0  0  0  0  0  0  0  0  0  0  0
  -84.7333   29.6969    0.4802 C   0  0  0  0  0  0  0  0  0  0  0  0
  -84.4305   31.0646    1.0836 C   0  0  0  0  0  0  0  0  0  0  0  0
  -85.1819   32.1885    0.4861 C   0  0  0  0  0  0  0  0  0  0  0  0
  -83.9424   28.7542    1.1884 N   0  0  0  0  0  0  0  0  0  0  0  0
  -84.5561   28.0699    2.2808 C   0  0  0  0  0  0  0  0  0  0  0  0
  -83.1781   27.9504    2.9000 C   0  0  0  0  0  0  0  0  0  0  0  0
  -82.8622   29.1513    2.0107 C   0  0  0  0  0  0  0  0  0  0  0  0
  -92.1618   30.5520   -3.0799 C   0  0  0  0  0  0  0  0  0  0  0  0
  -90.8192   30.8947   -3.6777 C   0  0  0  0  0  0  0  0  0  0  0  0
  -90.7328   31.8336   -4.6517 C   0  0  0  0  0  0  0  0  0  0  0  0
  -89.4703   32.1145   -5.2318 C   0  0  0  0  0  0  0  0  0  0  0  0
  -88.3411   31.4230   -4.7945 C   0  0  0  0  0  0  0  0  0  0  0  0
  -88.5508   30.4681   -3.7794 C   0  0  0  0  0  0  0  0  0  0  0  0
  -89.7268   30.1996   -3.2263 C   0  0  0  0  0  0  0  0  0  0  0  0
 18 19  2  0  0  0
 19 17  1  0  0  0
 17  1  1  0  0  0
  1  2  1  0  0  0
  2  3  1  0  0  0
  3  4  2  0  0  0
  3  5  1  0  0  0
  5  6  1  0  0  0
  6 20  1  0  0  0
 20 21  1  0  0  0
 21 22  2  0  0  0
 22 23  1  0  0  0
 23 24  2  0  0  0
 24 25  1  0  0  0
 24 26  1  0  0  0
 26 27  2  0  0  0
  6  7  1  0  0  0
  7  8  2  0  0  0
  7  9  1  0  0  0
  9 29  1  0  0  0
 29 30  1  0  0  0
 30 31  2  0  0  0
 31 32  1  0  0  0
 32 33  2  0  0  0
 33 34  1  0  0  0
 34 35  1  0  0  0
 35 40  1  0  0  0
 40 41  2  0  0  0
 40 42  1  0  0  0
 42 44  1  0  0  0
 44 45  2  0  0  0
 45 46  1  0  0  0
 46 47  2  0  0  0
 47 50  1  0  0  0
 50 51  1  0  0  0
 51 52  1  0  0  0
 52 53  1  0  0  0
 53 56  1  0  0  0
 56 57  1  0  0  0
 57 58  1  0  0  0
 58 59  1  0  0  0
 53 54  1  0  0  0
 54 55  1  0  0  0
 47 48  1  0  0  0
 48 49  2  0  0  0
 35 36  2  0  0  0
 36 37  1  0  0  0
 37 38  1  0  0  0
 37 39  1  0  0  0
  9 10  1  0  0  0
 10 11  1  0  0  0
 11 12  1  0  0  0
 12 13  1  0  0  0
 13 14  2  0  0  0
 13 15  1  0  0  0
 15 60  1  0  0  0
 60 61  1  0  0  0
 61 62  2  0  0  0
 62 63  1  0  0  0
 63 64  2  0  0  0
 64 65  1  0  0  0
 65 66  2  0  0  0
 12  1  1  0  0  0
 66 61  1  0  0  0
 11  5  1  0  0  0
 27 21  1  0  0  0
 39 30  1  0  0  0
 39 34  2  0  0  0
 49 44  1  0  0  0
 55 50  1  0  0  0
 59 56  1  0  0  0
 25 28  1  0  0  0
 42 43  1  0  0  0
 15 16  1  0  0  0
M  END
> <minimizedAffinity>
-8.14282

> <CNNscore>
0.0370033532

> <CNNaffinity>
6.7910017967

> <CNN_VS>
0.2512898445

> <CNNaffinity_variance>
0.7819949389

$$$$
[H]Oc1c([H])c([H])c(C([H])([H])[C@@]2([H])C(=O)N(C([H])([H])c3c([H])c([H])c([H])c4c(C(=O)N([H])c5c([H])nc(N6C([H])([H])C([H])([H])C([H])(N7C([H])([H])C([H])([H])C7([H])[H])C([H])([H])C6([H])[H])c([H])c5[H])c([H])n(C([H])([H])[H])c34)C([H])([H])[C@]3([H])N(C(=O)N([H])C([H])([H])c4c([H])c([H])c([H])c([H])c4[H])N(C([H])([H])C([H])=C([H])[H])C([H])([H])C(=O)N23)c([H])c1[H]


 66 74  0  0  0  0  0  0  0  0999 V2000
  -89.1027   29.8577   -2.3956 N   0  0  0  0  0  0  0  0  0  0  0  0
  -88.3242   28.6328   -2.4336 C   0  0  0  0  0  0  0  0  0  0  0  0
  -88.6680   27.9919   -1.0995 C   0  0  0  0  0  0  0  0  0  0  0  0
  -87.7149   27.6341   -0.3841 O   0  0  0  0  0  0  0  0  0  0  0  0
  -90.0080   27.8325   -0.7466 N   0  0  0  0  0  0  0  0  0  0  0  0
  -90.4063   26.8054    0.1732 C   0  0  0  0  0  0  0  0  0  0  0  0
  -91.0545   25.7892   -0.7374 C   0  0  0  0  0  0  0  0  0  0  0  0
  -90.8483   24.5957   -0.5988 O   0  0  0  0  0  0  0  0  0  0  0  0
  -91.9046   26.2820   -1.7471 N   0  0  0  0  0  0  0  0  0  0  0  0
  -92.0954   27.7345   -1.9788 C   0  0  0  0  0  0  0  0  0  0  0  0
  -91.0512   28.6067   -1.3653 C   0  0  0  0  0  0  0  0  0  0  0  0
  -90.4846   29.6404   -2.2011 N   0  0  0  0  0  0  0  0  0  0  0  0
  -91.3227   30.5678   -2.8944 C   0  0  0  0  0  0  0  0  0  0  0  0
  -90.7383   31.4085   -3.6578 O   0  0  0  0  0  0  0  0  0  0  0  0
  -92.7181   30.6655   -2.8314 N   0  0  0  0  0  0  0  0  0  0  0  0
  -93.2671   30.0401   -2.2412 H   0  0  0  0  0  0  0  0  0  0  0  0
  -88.5028   30.6228   -1.3129 C   0  0  0  0  0  0  0  0  0  0  0  0
  -87.4520   32.7899   -1.0090 C   0  0  0  0  0  0  0  0  0  0  0  0
  -87.6738   31.7267   -1.7342 C   0  0  0  0  0  0  0  0  0  0  0  0
  -91.2825   27.1539    1.3008 C   0  0  0  0  0  0  0  0  0  0  0  0
  -90.7908   27.0060    2.6729 C   0  0  0  0  0  0  0  0  0  0  0  0
  -90.6351   25.7379    3.2355 C   0  0  0  0  0  0  0  0  0  0  0  0
  -90.2364   25.5925    4.5470 C   0  0  0  0  0  0  0  0  0  0  0  0
  -89.9741   26.6705    5.3687 C   0  0  0  0  0  0  0  0  0  0  0  0
  -89.5753   26.4554    6.6744 O   0  0  0  0  0  0  0  0  0  0  0  0
  -90.1268   27.9142    4.8224 C   0  0  0  0  0  0  0  0  0  0  0  0
  -90.5293   28.0774    3.4970 C   0  0  0  0  0  0  0  0  0  0  0  0
  -89.4632   25.5275    7.0679 H   0  0  0  0  0  0  0  0  0  0  0  0
  -92.6467   25.4305   -2.6785 C   0  0  0  0  0  0  0  0  0  0  0  0
  -93.0747   26.2319   -3.8292 C   0  0  0  0  0  0  0  0  0  0  0  0
  -92.2192   26.5329   -4.8566 C   0  0  0  0  0  0  0  0  0  0  0  0
  -92.5979   27.3360   -5.9186 C   0  0  0  0  0  0  0  0  0  0  0  0
  -93.8768   27.8602   -5.9637 C   0  0  0  0  0  0  0  0  0  0  0  0
  -94.7602   27.5576   -4.9198 C   0  0  0  0  0  0  0  0  0  0  0  0
  -96.0533   27.9003   -4.7062 C   0  0  0  0  0  0  0  0  0  0  0  0
  -96.4310   27.3036   -3.5374 C   0  0  0  0  0  0  0  0  0  0  0  0
  -95.4175   26.5980   -3.0053 N   0  0  0  0  0  0  0  0  0  0  0  0
  -95.4512   25.8385   -1.7803 C   0  0  0  0  0  0  0  0  0  0  0  0
  -94.3655   26.7506   -3.8595 C   0  0  0  0  0  0  0  0  0  0  0  0
  -96.9572   28.7841   -5.5197 C   0  0  0  0  0  0  0  0  0  0  0  0
  -98.1156   28.3962   -5.7821 O   0  0  0  0  0  0  0  0  0  0  0  0
  -96.4136   30.0170   -5.9250 N   0  0  0  0  0  0  0  0  0  0  0  0
  -97.6930   30.3957   -6.2792 H   0  0  0  0  0  0  0  0  0  0  0  0
  -95.9264   31.1644   -6.3093 C   0  0  0  0  0  0  0  0  0  0  0  0
  -94.6838   31.2179   -6.9742 C   0  0  0  0  0  0  0  0  0  0  0  0
  -94.1036   32.3552   -7.3981 C   0  0  0  0  0  0  0  0  0  0  0  0
  -94.7510   33.5478   -7.1690 C   0  0  0  0  0  0  0  0  0  0  0  0
  -95.9460   33.5795   -6.5365 N   0  0  0  0  0  0  0  0  0  0  0  0
  -96.5240   32.4293   -6.1199 C   0  0  0  0  0  0  0  0  0  0  0  0
  -94.1660   34.7983   -7.5446 N   0  0  0  0  0  0  0  0  0  0  0  0
  -95.0232   35.8426   -8.0487 C   0  0  0  0  0  0  0  0  0  0  0  0
  -94.6800   37.2255   -7.6334 C   0  0  0  0  0  0  0  0  0  0  0  0
  -93.3662   37.3908   -6.9546 C   0  0  0  0  0  0  0  0  0  0  0  0
  -92.3138   36.3993   -7.4404 C   0  0  0  0  0  0  0  0  0  0  0  0
  -92.7457   34.9857   -7.4447 C   0  0  0  0  0  0  0  0  0  0  0  0
  -92.7814   38.6817   -7.0411 N   0  0  0  0  0  0  0  0  0  0  0  0
  -91.6815   38.8464   -7.9363 C   0  0  0  0  0  0  0  0  0  0  0  0
  -91.1883   39.9552   -7.0285 C   0  0  0  0  0  0  0  0  0  0  0  0
  -92.0320   39.2364   -5.9775 C   0  0  0  0  0  0  0  0  0  0  0  0
  -93.4443   31.6744   -3.5977 C   0  0  0  0  0  0  0  0  0  0  0  0
  -94.7839   31.9547   -2.9616 C   0  0  0  0  0  0  0  0  0  0  0  0
  -95.5521   30.9274   -2.5233 C   0  0  0  0  0  0  0  0  0  0  0  0
  -96.8256   31.2047   -1.9658 C   0  0  0  0  0  0  0  0  0  0  0  0
  -97.2675   32.5243   -1.8780 C   0  0  0  0  0  0  0  0  0  0  0  0
  -96.3863   33.5093   -2.3673 C   0  0  0  0  0  0  0  0  0  0  0  0
  -95.1907   33.2620   -2.8874 C   0  0  0  0  0  0  0  0  0  0  0  0
 18 19  2  0  0  0
 19 17  1  0  0  0
 17  1  1  0  0  0
  1  2  1  0  0  0
  2  3  1  0  0  0
  3  4  2  0  0  0
  3  5  1  0  0  0
  5  6  1  0  0  0
  6 20  1  0  0  0
 20 21  1  0  0  0
 21 22  2  0  0  0
 22 23  1  0  0  0
 23 24  2  0  0  0
 24 25  1  0  0  0
 24 26  1  0  0  0
 26 27  2  0  0  0
  6  7  1  0  0  0
  7  8  2  0  0  0
  7  9  1  0  0  0
  9 29  1  0  0  0
 29 30  1  0  0  0
 30 31  2  0  0  0
 31 32  1  0  0  0
 32 33  2  0  0  0
 33 34  1  0  0  0
 34 35  1  0  0  0
 35 40  1  0  0  0
 40 41  2  0  0  0
 40 42  1  0  0  0
 42 44  1  0  0  0
 44 45  2  0  0  0
 45 46  1  0  0  0
 46 47  2  0  0  0
 47 50  1  0  0  0
 50 51  1  0  0  0
 51 52  1  0  0  0
 52 53  1  0  0  0
 53 56  1  0  0  0
 56 57  1  0  0  0
 57 58  1  0  0  0
 58 59  1  0  0  0
 53 54  1  0  0  0
 54 55  1  0  0  0
 47 48  1  0  0  0
 48 49  2  0  0  0
 35 36  2  0  0  0
 36 37  1  0  0  0
 37 38  1  0  0  0
 37 39  1  0  0  0
  9 10  1  0  0  0
 10 11  1  0  0  0
 11 12  1  0  0  0
 12 13  1  0  0  0
 13 14  2  0  0  0
 13 15  1  0  0  0
 15 60  1  0  0  0
 60 61  1  0  0  0
 61 62  2  0  0  0
 62 63  1  0  0  0
 63 64  2  0  0  0
 64 65  1  0  0  0
 65 66  2  0  0  0
 12  1  1  0  0  0
 66 61  1  0  0  0
 11  5  1  0  0  0
 27 21  1  0  0  0
 39 30  1  0  0  0
 39 34  2  0  0  0
 49 44  1  0  0  0
 55 50  1  0  0  0
 59 56  1  0  0  0
 25 28  1  0  0  0
 42 43  1  0  0  0
 15 16  1  0  0  0
M  END
> <minimizedAffinity>
-7.31357

> <CNNscore>
0.0312913731

> <CNNaffinity>
7.2754669189

> <CNN_VS>
0.2276593447

> <CNNaffinity_variance>
0.3543977141

$$$$
[H]Oc1c([H])c([H])c(C([H])([H])[C@@]2([H])C(=O)N(C([H])([H])c3c([H])c([H])c([H])c4c(C(=O)N([H])c5c([H])nc(N6C([H])([H])C([H])([H])C([H])(N7C([H])([H])C([H])([H])C7([H])[H])C([H])([H])C6([H])[H])c([H])c5[H])c([H])n(C([H])([H])[H])c34)C([H])([H])[C@]3([H])N(C(=O)N([H])C([H])([H])c4c([H])c([H])c([H])c([H])c4[H])N(C([H])([H])C([H])=C([H])[H])C([H])([H])C(=O)N23)c([H])c1[H]


 66 74  0  0  0  0  0  0  0  0999 V2000
  -93.7010   21.6731   -0.3738 N   0  0  0  0  0  0  0  0  0  0  0  0
  -94.1801   21.3311   -1.7009 C   0  0  0  0  0  0  0  0  0  0  0  0
  -95.2918   22.3450   -1.9126 C   0  0  0  0  0  0  0  0  0  0  0  0
  -96.3989   21.9014   -2.2675 O   0  0  0  0  0  0  0  0  0  0  0  0
  -95.0257   23.6989   -1.7087 N   0  0  0  0  0  0  0  0  0  0  0  0
  -95.7985   24.7064   -2.3774 C   0  0  0  0  0  0  0  0  0  0  0  0
  -94.8396   25.2010   -3.4348 C   0  0  0  0  0  0  0  0  0  0  0  0
  -95.2145   25.4188   -4.5742 O   0  0  0  0  0  0  0  0  0  0  0  0
  -93.5004   25.3991   -3.0448 N   0  0  0  0  0  0  0  0  0  0  0  0
  -93.0152   25.0565   -1.6856 C   0  0  0  0  0  0  0  0  0  0  0  0
  -93.9079   24.1399   -0.9171 C   0  0  0  0  0  0  0  0  0  0  0  0
  -93.2837   23.0172   -0.2553 N   0  0  0  0  0  0  0  0  0  0  0  0
  -92.1713   23.2059    0.6223 C   0  0  0  0  0  0  0  0  0  0  0  0
  -91.6450   22.1519    1.1152 O   0  0  0  0  0  0  0  0  0  0  0  0
  -91.5895   24.4191    1.0100 N   0  0  0  0  0  0  0  0  0  0  0  0
  -91.9496   25.3117    0.6717 H   0  0  0  0  0  0  0  0  0  0  0  0
  -94.8241   21.3611    0.4973 C   0  0  0  0  0  0  0  0  0  0  0  0
  -93.8891   19.2784    1.3223 C   0  0  0  0  0  0  0  0  0  0  0  0
  -94.9098   19.9804    0.9091 C   0  0  0  0  0  0  0  0  0  0  0  0
  -96.3566   25.8183   -1.5946 C   0  0  0  0  0  0  0  0  0  0  0  0
  -97.3568   25.5453   -0.5596 C   0  0  0  0  0  0  0  0  0  0  0  0
  -96.9886   25.5044    0.7865 C   0  0  0  0  0  0  0  0  0  0  0  0
  -97.9100   25.1830    1.7600 C   0  0  0  0  0  0  0  0  0  0  0  0
  -99.2265   24.8856    1.4693 C   0  0  0  0  0  0  0  0  0  0  0  0
 -100.1005   24.5737    2.4934 O   0  0  0  0  0  0  0  0  0  0  0  0
  -99.5911   24.9229    0.1523 C   0  0  0  0  0  0  0  0  0  0  0  0
  -98.6702   25.2466   -0.8440 C   0  0  0  0  0  0  0  0  0  0  0  0
  -99.8187   24.5515    3.4674 H   0  0  0  0  0  0  0  0  0  0  0  0
  -92.4590   25.9199   -3.9322 C   0  0  0  0  0  0  0  0  0  0  0  0
  -91.3960   26.5269   -3.1253 C   0  0  0  0  0  0  0  0  0  0  0  0
  -90.4780   25.7648   -2.4511 C   0  0  0  0  0  0  0  0  0  0  0  0
  -89.5062   26.3277   -1.6417 C   0  0  0  0  0  0  0  0  0  0  0  0
  -89.4420   27.7014   -1.4963 C   0  0  0  0  0  0  0  0  0  0  0  0
  -90.3743   28.4903   -2.1823 C   0  0  0  0  0  0  0  0  0  0  0  0
  -90.5413   29.8329   -2.2506 C   0  0  0  0  0  0  0  0  0  0  0  0
  -91.5935   30.0565   -3.0918 C   0  0  0  0  0  0  0  0  0  0  0  0
  -92.0975   28.8988   -3.5540 N   0  0  0  0  0  0  0  0  0  0  0  0
  -93.2077   28.7480   -4.4615 C   0  0  0  0  0  0  0  0  0  0  0  0
  -91.3448   27.9109   -2.9907 C   0  0  0  0  0  0  0  0  0  0  0  0
  -89.7898   30.9288   -1.5477 C   0  0  0  0  0  0  0  0  0  0  0  0
  -89.5661   30.8269   -0.3226 O   0  0  0  0  0  0  0  0  0  0  0  0
  -89.3788   32.0087   -2.3505 N   0  0  0  0  0  0  0  0  0  0  0  0
  -88.5824   32.4102   -1.2968 H   0  0  0  0  0  0  0  0  0  0  0  0
  -88.9894   33.0181   -3.0794 C   0  0  0  0  0  0  0  0  0  0  0  0
  -88.4767   34.1787   -2.4637 C   0  0  0  0  0  0  0  0  0  0  0  0
  -88.0600   35.2672   -3.1353 C   0  0  0  0  0  0  0  0  0  0  0  0
  -88.1395   35.2618   -4.5092 C   0  0  0  0  0  0  0  0  0  0  0  0
  -88.6209   34.1865   -5.1731 N   0  0  0  0  0  0  0  0  0  0  0  0
  -89.0315   33.0940   -4.4884 C   0  0  0  0  0  0  0  0  0  0  0  0
  -87.7646   36.4056   -5.2826 N   0  0  0  0  0  0  0  0  0  0  0  0
  -87.2634   37.5724   -4.5992 C   0  0  0  0  0  0  0  0  0  0  0  0
  -86.1653   38.3045   -5.2779 C   0  0  0  0  0  0  0  0  0  0  0  0
  -85.8824   37.8936   -6.6798 C   0  0  0  0  0  0  0  0  0  0  0  0
  -87.1239   37.4116   -7.4232 C   0  0  0  0  0  0  0  0  0  0  0  0
  -87.9183   36.3891   -6.7103 C   0  0  0  0  0  0  0  0  0  0  0  0
  -85.2696   38.8753   -7.5023 N   0  0  0  0  0  0  0  0  0  0  0  0
  -83.9445   39.2835   -7.1625 C   0  0  0  0  0  0  0  0  0  0  0  0
  -84.2616   40.6242   -7.7939 C   0  0  0  0  0  0  0  0  0  0  0  0
  -85.7080   40.2200   -7.5156 C   0  0  0  0  0  0  0  0  0  0  0  0
  -90.4517   24.4579    1.9245 C   0  0  0  0  0  0  0  0  0  0  0  0
  -90.4554   25.7436    2.7146 C   0  0  0  0  0  0  0  0  0  0  0  0
  -90.6826   26.9228    2.0857 C   0  0  0  0  0  0  0  0  0  0  0  0
  -90.6419   28.1255    2.8349 C   0  0  0  0  0  0  0  0  0  0  0  0
  -90.3690   28.0779    4.2014 C   0  0  0  0  0  0  0  0  0  0  0  0
  -90.1465   26.7977    4.7472 C   0  0  0  0  0  0  0  0  0  0  0  0
  -90.1859   25.6651    4.0568 C   0  0  0  0  0  0  0  0  0  0  0  0
 18 19  2  0  0  0
 19 17  1  0  0  0
 17  1  1  0  0  0
  1  2  1  0  0  0
  2  3  1  0  0  0
  3  4  2  0  0  0
  3  5  1  0  0  0
  5  6  1  0  0  0
  6 20  1  0  0  0
 20 21  1  0  0  0
 21 22  2  0  0  0
 22 23  1  0  0  0
 23 24  2  0  0  0
 24 25  1  0  0  0
 24 26  1  0  0  0
 26 27  2  0  0  0
  6  7  1  0  0  0
  7  8  2  0  0  0
  7  9  1  0  0  0
  9 29  1  0  0  0
 29 30  1  0  0  0
 30 31  2  0  0  0
 31 32  1  0  0  0
 32 33  2  0  0  0
 33 34  1  0  0  0
 34 35  1  0  0  0
 35 40  1  0  0  0
 40 41  2  0  0  0
 40 42  1  0  0  0
 42 44  1  0  0  0
 44 45  2  0  0  0
 45 46  1  0  0  0
 46 47  2  0  0  0
 47 50  1  0  0  0
 50 51  1  0  0  0
 51 52  1  0  0  0
 52 53  1  0  0  0
 53 56  1  0  0  0
 56 57  1  0  0  0
 57 58  1  0  0  0
 58 59  1  0  0  0
 53 54  1  0  0  0
 54 55  1  0  0  0
 47 48  1  0  0  0
 48 49  2  0  0  0
 35 36  2  0  0  0
 36 37  1  0  0  0
 37 38  1  0  0  0
 37 39  1  0  0  0
  9 10  1  0  0  0
 10 11  1  0  0  0
 11 12  1  0  0  0
 12 13  1  0  0  0
 13 14  2  0  0  0
 13 15  1  0  0  0
 15 60  1  0  0  0
 60 61  1  0  0  0
 61 62  2  0  0  0
 62 63  1  0  0  0
 63 64  2  0  0  0
 64 65  1  0  0  0
 65 66  2  0  0  0
 12  1  1  0  0  0
 66 61  1  0  0  0
 11  5  1  0  0  0
 27 21  1  0  0  0
 39 30  1  0  0  0
 39 34  2  0  0  0
 49 44  1  0  0  0
 55 50  1  0  0  0
 59 56  1  0  0  0
 25 28  1  0  0  0
 42 43  1  0  0  0
 15 16  1  0  0  0
M  END
> <minimizedAffinity>
-8.55118

> <CNNscore>
0.0276722312

> <CNNaffinity>
6.7044463158

> <CNN_VS>
0.1855269819

> <CNNaffinity_variance>
0.5045484304

$$$$
[H]Oc1c([H])c([H])c(C([H])([H])[C@@]2([H])C(=O)N(C([H])([H])c3c([H])c([H])c([H])c4c(C(=O)N([H])c5c([H])nc(N6C([H])([H])C([H])([H])C([H])(N7C([H])([H])C([H])([H])C7([H])[H])C([H])([H])C6([H])[H])c([H])c5[H])c([H])n(C([H])([H])[H])c34)C([H])([H])[C@]3([H])N(C(=O)N([H])C([H])([H])c4c([H])c([H])c([H])c([H])c4[H])N(C([H])([H])C([H])=C([H])[H])C([H])([H])C(=O)N23)c([H])c1[H]


 66 74  0  0  0  0  0  0  0  0999 V2000
  -90.8356   27.1847    2.8890 N   0  0  0  0  0  0  0  0  0  0  0  0
  -91.4142   28.1720    1.9954 C   0  0  0  0  0  0  0  0  0  0  0  0
  -90.2472   28.4992    1.0791 C   0  0  0  0  0  0  0  0  0  0  0  0
  -89.9643   29.7023    0.9347 O   0  0  0  0  0  0  0  0  0  0  0  0
  -89.5632   27.4587    0.4506 N   0  0  0  0  0  0  0  0  0  0  0  0
  -88.8592   27.6824   -0.7798 C   0  0  0  0  0  0  0  0  0  0  0  0
  -89.7618   27.0201   -1.7941 C   0  0  0  0  0  0  0  0  0  0  0  0
  -89.9992   27.5479   -2.8671 O   0  0  0  0  0  0  0  0  0  0  0  0
  -90.3117   25.7709   -1.4450 N   0  0  0  0  0  0  0  0  0  0  0  0
  -90.0988   25.1600   -0.1103 C   0  0  0  0  0  0  0  0  0  0  0  0
  -89.6244   26.1073    0.9410 C   0  0  0  0  0  0  0  0  0  0  0  0
  -90.2996   26.0637    2.2177 N   0  0  0  0  0  0  0  0  0  0  0  0
  -90.4516   24.8326    2.9280 C   0  0  0  0  0  0  0  0  0  0  0  0
  -91.1147   24.8783    4.0186 O   0  0  0  0  0  0  0  0  0  0  0  0
  -89.9525   23.5750    2.5677 N   0  0  0  0  0  0  0  0  0  0  0  0
  -89.4046   23.4461    1.7167 H   0  0  0  0  0  0  0  0  0  0  0  0
  -89.8242   27.9269    3.6262 C   0  0  0  0  0  0  0  0  0  0  0  0
  -89.8428   27.0638    5.8949 C   0  0  0  0  0  0  0  0  0  0  0  0
  -90.0605   28.0321    5.0462 C   0  0  0  0  0  0  0  0  0  0  0  0
  -87.4718   27.2137   -0.9069 C   0  0  0  0  0  0  0  0  0  0  0  0
  -86.4193   27.8392   -0.1023 C   0  0  0  0  0  0  0  0  0  0  0  0
  -86.0223   27.2697    1.1089 C   0  0  0  0  0  0  0  0  0  0  0  0
  -85.0801   27.8873    1.9032 C   0  0  0  0  0  0  0  0  0  0  0  0
  -84.4848   29.0841    1.5575 C   0  0  0  0  0  0  0  0  0  0  0  0
  -83.5446   29.6493    2.3981 O   0  0  0  0  0  0  0  0  0  0  0  0
  -84.8715   29.6460    0.3730 C   0  0  0  0  0  0  0  0  0  0  0  0
  -85.8236   29.0331   -0.4415 C   0  0  0  0  0  0  0  0  0  0  0  0
  -83.2640   29.2215    3.2738 H   0  0  0  0  0  0  0  0  0  0  0  0
  -91.1636   24.9763   -2.3316 C   0  0  0  0  0  0  0  0  0  0  0  0
  -92.5208   24.9254   -1.7794 C   0  0  0  0  0  0  0  0  0  0  0  0
  -92.8170   24.1916   -0.6605 C   0  0  0  0  0  0  0  0  0  0  0  0
  -94.1059   24.0921   -0.1653 C   0  0  0  0  0  0  0  0  0  0  0  0
  -95.1419   24.7476   -0.8050 C   0  0  0  0  0  0  0  0  0  0  0  0
  -94.8504   25.5021   -1.9486 C   0  0  0  0  0  0  0  0  0  0  0  0
  -95.6360   26.2547   -2.7557 C   0  0  0  0  0  0  0  0  0  0  0  0
  -94.8201   26.7928   -3.7092 C   0  0  0  0  0  0  0  0  0  0  0  0
  -93.5458   26.4019   -3.5318 N   0  0  0  0  0  0  0  0  0  0  0  0
  -92.4137   26.7727   -4.3439 C   0  0  0  0  0  0  0  0  0  0  0  0
  -93.5516   25.5920   -2.4347 C   0  0  0  0  0  0  0  0  0  0  0  0
  -97.1216   26.4799   -2.7076 C   0  0  0  0  0  0  0  0  0  0  0  0
  -97.8913   25.5393   -2.9978 O   0  0  0  0  0  0  0  0  0  0  0  0
  -97.5388   27.7665   -2.3199 N   0  0  0  0  0  0  0  0  0  0  0  0
  -98.8108   27.2473   -2.1848 H   0  0  0  0  0  0  0  0  0  0  0  0
  -97.9440   28.9537   -1.9621 C   0  0  0  0  0  0  0  0  0  0  0  0
  -99.3165   29.2751   -2.0049 C   0  0  0  0  0  0  0  0  0  0  0  0
  -99.8213   30.4740   -1.6622 C   0  0  0  0  0  0  0  0  0  0  0  0
  -98.9532   31.4582   -1.2478 C   0  0  0  0  0  0  0  0  0  0  0  0
  -97.6223   31.2277   -1.1808 N   0  0  0  0  0  0  0  0  0  0  0  0
  -97.1254   30.0162   -1.5216 C   0  0  0  0  0  0  0  0  0  0  0  0
  -99.4161   32.7718   -0.9206 N   0  0  0  0  0  0  0  0  0  0  0  0
  -99.9890   33.0019    0.3826 C   0  0  0  0  0  0  0  0  0  0  0  0
  -99.6714   34.3071    1.0136 C   0  0  0  0  0  0  0  0  0  0  0  0
  -99.0093   35.3079    0.1338 C   0  0  0  0  0  0  0  0  0  0  0  0
  -99.4281   35.1882   -1.3279 C   0  0  0  0  0  0  0  0  0  0  0  0
  -99.3332   33.8256   -1.8928 C   0  0  0  0  0  0  0  0  0  0  0  0
  -99.1866   36.6685    0.4990 N   0  0  0  0  0  0  0  0  0  0  0  0
  -98.0118   37.4612    0.6712 C   0  0  0  0  0  0  0  0  0  0  0  0
  -98.7973   38.3000    1.6592 C   0  0  0  0  0  0  0  0  0  0  0  0
  -99.6590   37.0445    1.7781 C   0  0  0  0  0  0  0  0  0  0  0  0
  -90.1844   22.3985    3.4010 C   0  0  0  0  0  0  0  0  0  0  0  0
  -90.6207   21.2299    2.5516 C   0  0  0  0  0  0  0  0  0  0  0  0
  -91.2311   21.4501    1.3614 C   0  0  0  0  0  0  0  0  0  0  0  0
  -91.6719   20.3423    0.5946 C   0  0  0  0  0  0  0  0  0  0  0  0
  -91.4727   19.0484    1.0744 C   0  0  0  0  0  0  0  0  0  0  0  0
  -90.8301   18.9403    2.3240 C   0  0  0  0  0  0  0  0  0  0  0  0
  -90.4098   19.9695    3.0487 C   0  0  0  0  0  0  0  0  0  0  0  0
 18 19  2  0  0  0
 19 17  1  0  0  0
 17  1  1  0  0  0
  1  2  1  0  0  0
  2  3  1  0  0  0
  3  4  2  0  0  0
  3  5  1  0  0  0
  5  6  1  0  0  0
  6 20  1  0  0  0
 20 21  1  0  0  0
 21 22  2  0  0  0
 22 23  1  0  0  0
 23 24  2  0  0  0
 24 25  1  0  0  0
 24 26  1  0  0  0
 26 27  2  0  0  0
  6  7  1  0  0  0
  7  8  2  0  0  0
  7  9  1  0  0  0
  9 29  1  0  0  0
 29 30  1  0  0  0
 30 31  2  0  0  0
 31 32  1  0  0  0
 32 33  2  0  0  0
 33 34  1  0  0  0
 34 35  1  0  0  0
 35 40  1  0  0  0
 40 41  2  0  0  0
 40 42  1  0  0  0
 42 44  1  0  0  0
 44 45  2  0  0  0
 45 46  1  0  0  0
 46 47  2  0  0  0
 47 50  1  0  0  0
 50 51  1  0  0  0
 51 52  1  0  0  0
 52 53  1  0  0  0
 53 56  1  0  0  0
 56 57  1  0  0  0
 57 58  1  0  0  0
 58 59  1  0  0  0
 53 54  1  0  0  0
 54 55  1  0  0  0
 47 48  1  0  0  0
 48 49  2  0  0  0
 35 36  2  0  0  0
 36 37  1  0  0  0
 37 38  1  0  0  0
 37 39  1  0  0  0
  9 10  1  0  0  0
 10 11  1  0  0  0
 11 12  1  0  0  0
 12 13  1  0  0  0
 13 14  2  0  0  0
 13 15  1  0  0  0
 15 60  1  0  0  0
 60 61  1  0  0  0
 61 62  2  0  0  0
 62 63  1  0  0  0
 63 64  2  0  0  0
 64 65  1  0  0  0
 65 66  2  0  0  0
 12  1  1  0  0  0
 66 61  1  0  0  0
 11  5  1  0  0  0
 27 21  1  0  0  0
 39 30  1  0  0  0
 39 34  2  0  0  0
 49 44  1  0  0  0
 55 50  1  0  0  0
 59 56  1  0  0  0
 25 28  1  0  0  0
 42 43  1  0  0  0
 15 16  1  0  0  0
M  END
> <minimizedAffinity>
-8.71588

> <CNNscore>
0.0187580045

> <CNNaffinity>
6.7638092041

> <CNN_VS>
0.1268755645

> <CNNaffinity_variance>
0.7107603550

$$$$
[H]Oc1c([H])c([H])c(C([H])([H])[C@@]2([H])C(=O)N(C([H])([H])c3c([H])c([H])c([H])c4c(C(=O)N([H])c5c([H])nc(N6C([H])([H])C([H])([H])C([H])(N7C([H])([H])C([H])([H])C7([H])[H])C([H])([H])C6([H])[H])c([H])c5[H])c([H])n(C([H])([H])[H])c34)C([H])([H])[C@]3([H])N(C(=O)N([H])C([H])([H])c4c([H])c([H])c([H])c([H])c4[H])N(C([H])([H])C([H])=C([H])[H])C([H])([H])C(=O)N23)c([H])c1[H]


 66 74  0  0  0  0  0  0  0  0999 V2000
  -96.7547   19.6215   -4.1343 N   0  0  0  0  0  0  0  0  0  0  0  0
  -97.1840   20.3227   -2.9377 C   0  0  0  0  0  0  0  0  0  0  0  0
  -95.8822   20.9199   -2.4305 C   0  0  0  0  0  0  0  0  0  0  0  0
  -95.5920   20.7089   -1.2390 O   0  0  0  0  0  0  0  0  0  0  0  0
  -95.0904   21.6660   -3.3034 N   0  0  0  0  0  0  0  0  0  0  0  0
  -94.1905   22.6659   -2.8033 C   0  0  0  0  0  0  0  0  0  0  0  0
  -94.9010   23.9496   -3.1631 C   0  0  0  0  0  0  0  0  0  0  0  0
  -94.9588   24.8801   -2.3775 O   0  0  0  0  0  0  0  0  0  0  0  0
  -95.4886   24.0215   -4.4415 N   0  0  0  0  0  0  0  0  0  0  0  0
  -95.4984   22.8663   -5.3718 C   0  0  0  0  0  0  0  0  0  0  0  0
  -95.2192   21.5473   -4.7316 C   0  0  0  0  0  0  0  0  0  0  0  0
  -96.1006   20.4533   -5.0697 N   0  0  0  0  0  0  0  0  0  0  0  0
  -96.3575   20.1098   -6.4333 C   0  0  0  0  0  0  0  0  0  0  0  0
  -97.1963   19.1690   -6.6390 O   0  0  0  0  0  0  0  0  0  0  0  0
  -95.7910   20.6854   -7.5771 N   0  0  0  0  0  0  0  0  0  0  0  0
  -95.1055   21.4379   -7.5078 H   0  0  0  0  0  0  0  0  0  0  0  0
  -95.8908   18.5638   -3.6318 C   0  0  0  0  0  0  0  0  0  0  0  0
  -97.3753   16.7046   -4.1137 C   0  0  0  0  0  0  0  0  0  0  0  0
  -96.5660   17.3313   -3.3027 C   0  0  0  0  0  0  0  0  0  0  0  0
  -92.7967   22.6732   -3.2701 C   0  0  0  0  0  0  0  0  0  0  0  0
  -91.8588   23.6634   -2.7352 C   0  0  0  0  0  0  0  0  0  0  0  0
  -91.0102   23.3341   -1.6766 C   0  0  0  0  0  0  0  0  0  0  0  0
  -90.1723   24.2791   -1.1245 C   0  0  0  0  0  0  0  0  0  0  0  0
  -90.1234   25.5836   -1.5740 C   0  0  0  0  0  0  0  0  0  0  0  0
  -89.2583   26.4815   -0.9778 O   0  0  0  0  0  0  0  0  0  0  0  0
  -90.9538   25.9109   -2.6093 C   0  0  0  0  0  0  0  0  0  0  0  0
  -91.8071   24.9657   -3.1785 C   0  0  0  0  0  0  0  0  0  0  0  0
  -88.6451   26.2262   -0.2114 H   0  0  0  0  0  0  0  0  0  0  0  0
  -96.1693   25.2082   -4.9627 C   0  0  0  0  0  0  0  0  0  0  0  0
  -95.1773   26.2520   -5.2384 C   0  0  0  0  0  0  0  0  0  0  0  0
  -94.1629   26.0627   -6.1402 C   0  0  0  0  0  0  0  0  0  0  0  0
  -93.1893   27.0208   -6.3648 C   0  0  0  0  0  0  0  0  0  0  0  0
  -93.2242   28.2146   -5.6678 C   0  0  0  0  0  0  0  0  0  0  0  0
  -94.2576   28.4196   -4.7448 C   0  0  0  0  0  0  0  0  0  0  0  0
  -94.5585   29.4736   -3.9488 C   0  0  0  0  0  0  0  0  0  0  0  0
  -95.6953   29.1419   -3.2690 C   0  0  0  0  0  0  0  0  0  0  0  0
  -96.1199   27.9119   -3.6080 N   0  0  0  0  0  0  0  0  0  0  0  0
  -97.2844   27.2344   -3.0945 C   0  0  0  0  0  0  0  0  0  0  0  0
  -95.2276   27.4482   -4.5292 C   0  0  0  0  0  0  0  0  0  0  0  0
  -93.8247   30.7722   -3.7605 C   0  0  0  0  0  0  0  0  0  0  0  0
  -94.3813   31.8411   -4.0904 O   0  0  0  0  0  0  0  0  0  0  0  0
  -92.5361   30.6780   -3.2036 N   0  0  0  0  0  0  0  0  0  0  0  0
  -92.5783   32.0464   -3.0269 H   0  0  0  0  0  0  0  0  0  0  0  0
  -91.3397   30.6099   -2.6880 C   0  0  0  0  0  0  0  0  0  0  0  0
  -90.4729   31.7197   -2.7640 C   0  0  0  0  0  0  0  0  0  0  0  0
  -89.2226   31.7355   -2.2676 C   0  0  0  0  0  0  0  0  0  0  0  0
  -88.7467   30.6015   -1.6499 C   0  0  0  0  0  0  0  0  0  0  0  0
  -89.5173   29.4956   -1.5383 N   0  0  0  0  0  0  0  0  0  0  0  0
  -90.7757   29.4924   -2.0353 C   0  0  0  0  0  0  0  0  0  0  0  0
  -87.4088   30.5310   -1.1481 N   0  0  0  0  0  0  0  0  0  0  0  0
  -86.7244   31.7573   -0.8202 C   0  0  0  0  0  0  0  0  0  0  0  0
  -85.8502   31.7160    0.3784 C   0  0  0  0  0  0  0  0  0  0  0  0
  -85.5971   30.3655    0.9494 C   0  0  0  0  0  0  0  0  0  0  0  0
  -85.5901   29.2630   -0.1045 C   0  0  0  0  0  0  0  0  0  0  0  0
  -86.7607   29.2573   -1.0070 C   0  0  0  0  0  0  0  0  0  0  0  0
  -84.3988   30.2228    1.6973 N   0  0  0  0  0  0  0  0  0  0  0  0
  -83.1670   30.4664    1.0179 C   0  0  0  0  0  0  0  0  0  0  0  0
  -82.5146   29.4958    1.9818 C   0  0  0  0  0  0  0  0  0  0  0  0
  -83.9366   28.9602    2.1364 C   0  0  0  0  0  0  0  0  0  0  0  0
  -96.1480   20.2243   -8.9159 C   0  0  0  0  0  0  0  0  0  0  0  0
  -94.9068   20.0118   -9.7475 C   0  0  0  0  0  0  0  0  0  0  0  0
  -93.6973   19.9128   -9.1434 C   0  0  0  0  0  0  0  0  0  0  0  0
  -92.5363   19.7547   -9.9413 C   0  0  0  0  0  0  0  0  0  0  0  0
  -92.6553   19.7045  -11.3297 C   0  0  0  0  0  0  0  0  0  0  0  0
  -93.9612   19.8202  -11.8468 C   0  0  0  0  0  0  0  0  0  0  0  0
  -95.0553   19.9646  -11.1098 C   0  0  0  0  0  0  0  0  0  0  0  0
 18 19  2  0  0  0
 19 17  1  0  0  0
 17  1  1  0  0  0
  1  2  1  0  0  0
  2  3  1  0  0  0
  3  4  2  0  0  0
  3  5  1  0  0  0
  5  6  1  0  0  0
  6 20  1  0  0  0
 20 21  1  0  0  0
 21 22  2  0  0  0
 22 23  1  0  0  0
 23 24  2  0  0  0
 24 25  1  0  0  0
 24 26  1  0  0  0
 26 27  2  0  0  0
  6  7  1  0  0  0
  7  8  2  0  0  0
  7  9  1  0  0  0
  9 29  1  0  0  0
 29 30  1  0  0  0
 30 31  2  0  0  0
 31 32  1  0  0  0
 32 33  2  0  0  0
 33 34  1  0  0  0
 34 35  1  0  0  0
 35 40  1  0  0  0
 40 41  2  0  0  0
 40 42  1  0  0  0
 42 44  1  0  0  0
 44 45  2  0  0  0
 45 46  1  0  0  0
 46 47  2  0  0  0
 47 50  1  0  0  0
 50 51  1  0  0  0
 51 52  1  0  0  0
 52 53  1  0  0  0
 53 56  1  0  0  0
 56 57  1  0  0  0
 57 58  1  0  0  0
 58 59  1  0  0  0
 53 54  1  0  0  0
 54 55  1  0  0  0
 47 48  1  0  0  0
 48 49  2  0  0  0
 35 36  2  0  0  0
 36 37  1  0  0  0
 37 38  1  0  0  0
 37 39  1  0  0  0
  9 10  1  0  0  0
 10 11  1  0  0  0
 11 12  1  0  0  0
 12 13  1  0  0  0
 13 14  2  0  0  0
 13 15  1  0  0  0
 15 60  1  0  0  0
 60 61  1  0  0  0
 61 62  2  0  0  0
 62 63  1  0  0  0
 63 64  2  0  0  0
 64 65  1  0  0  0
 65 66  2  0  0  0
 12  1  1  0  0  0
 66 61  1  0  0  0
 11  5  1  0  0  0
 27 21  1  0  0  0
 39 30  1  0  0  0
 39 34  2  0  0  0
 49 44  1  0  0  0
 55 50  1  0  0  0
 59 56  1  0  0  0
 25 28  1  0  0  0
 42 43  1  0  0  0
 15 16  1  0  0  0
M  END
> <minimizedAffinity>
-8.96361

> <CNNscore>
0.0183502566

> <CNNaffinity>
6.6099028587

> <CNN_VS>
0.1212934107

> <CNNaffinity_variance>
0.6720315218

$$$$
[H]Oc1c([H])c([H])c(C([H])([H])[C@@]2([H])C(=O)N(C([H])([H])c3c([H])c([H])c([H])c4c(C(=O)N([H])c5c([H])nc(N6C([H])([H])C([H])([H])C([H])(N7C([H])([H])C([H])([H])C7([H])[H])C([H])([H])C6([H])[H])c([H])c5[H])c([H])n(C([H])([H])[H])c34)C([H])([H])[C@]3([H])N(C(=O)N([H])C([H])([H])c4c([H])c([H])c([H])c([H])c4[H])N(C([H])([H])C([H])=C([H])[H])C([H])([H])C(=O)N23)c([H])c1[H]


 66 74  0  0  0  0  0  0  0  0999 V2000
  -90.2274   26.9803    1.7473 N   0  0  0  0  0  0  0  0  0  0  0  0
  -91.1142   28.1194    1.9028 C   0  0  0  0  0  0  0  0  0  0  0  0
  -90.6451   29.0457    0.7935 C   0  0  0  0  0  0  0  0  0  0  0  0
  -90.3821   30.2193    1.1130 O   0  0  0  0  0  0  0  0  0  0  0  0
  -90.5374   28.5508   -0.5061 N   0  0  0  0  0  0  0  0  0  0  0  0
  -90.6351   29.4306   -1.6356 C   0  0  0  0  0  0  0  0  0  0  0  0
  -92.0103   29.1138   -2.1747 C   0  0  0  0  0  0  0  0  0  0  0  0
  -92.7620   29.9991   -2.5454 O   0  0  0  0  0  0  0  0  0  0  0  0
  -92.3808   27.7556   -2.2300 N   0  0  0  0  0  0  0  0  0  0  0  0
  -91.5090   26.6776   -1.7029 C   0  0  0  0  0  0  0  0  0  0  0  0
  -90.4371   27.1405   -0.7733 C   0  0  0  0  0  0  0  0  0  0  0  0
  -90.2728   26.4037    0.4588 N   0  0  0  0  0  0  0  0  0  0  0  0
  -90.1112   24.9835    0.4510 C   0  0  0  0  0  0  0  0  0  0  0  0
  -90.0338   24.4092    1.5891 O   0  0  0  0  0  0  0  0  0  0  0  0
  -90.0238   24.1431   -0.6656 N   0  0  0  0  0  0  0  0  0  0  0  0
  -90.0680   24.5158   -1.6143 H   0  0  0  0  0  0  0  0  0  0  0  0
  -88.9121   27.5111    2.0726 C   0  0  0  0  0  0  0  0  0  0  0  0
  -86.6572   26.7780    1.5525 C   0  0  0  0  0  0  0  0  0  0  0  0
  -87.8421   26.5428    2.0487 C   0  0  0  0  0  0  0  0  0  0  0  0
  -89.6139   29.3584   -2.6905 C   0  0  0  0  0  0  0  0  0  0  0  0
  -88.7193   30.4972   -2.9119 C   0  0  0  0  0  0  0  0  0  0  0  0
  -88.2117   31.2187   -1.8298 C   0  0  0  0  0  0  0  0  0  0  0  0
  -87.4232   32.3311   -2.0317 C   0  0  0  0  0  0  0  0  0  0  0  0
  -87.0955   32.7921   -3.2912 C   0  0  0  0  0  0  0  0  0  0  0  0
  -86.2979   33.9129   -3.4242 O   0  0  0  0  0  0  0  0  0  0  0  0
  -87.5916   32.0896   -4.3537 C   0  0  0  0  0  0  0  0  0  0  0  0
  -88.3906   30.9620   -4.1654 C   0  0  0  0  0  0  0  0  0  0  0  0
  -85.9337   34.4247   -2.6280 H   0  0  0  0  0  0  0  0  0  0  0  0
  -93.6547   27.2772   -2.7699 C   0  0  0  0  0  0  0  0  0  0  0  0
  -93.6293   27.3819   -4.2321 C   0  0  0  0  0  0  0  0  0  0  0  0
  -92.7035   26.7105   -4.9872 C   0  0  0  0  0  0  0  0  0  0  0  0
  -92.6363   26.8480   -6.3630 C   0  0  0  0  0  0  0  0  0  0  0  0
  -93.5236   27.6839   -7.0157 C   0  0  0  0  0  0  0  0  0  0  0  0
  -94.4754   28.3738   -6.2541 C   0  0  0  0  0  0  0  0  0  0  0  0
  -95.4669   29.2262   -6.6085 C   0  0  0  0  0  0  0  0  0  0  0  0
  -96.1108   29.5814   -5.4580 C   0  0  0  0  0  0  0  0  0  0  0  0
  -95.5562   28.9832   -4.3890 N   0  0  0  0  0  0  0  0  0  0  0  0
  -95.9730   29.1222   -3.0158 C   0  0  0  0  0  0  0  0  0  0  0  0
  -94.5303   28.2265   -4.8734 C   0  0  0  0  0  0  0  0  0  0  0  0
  -95.8338   29.7575   -7.9661 C   0  0  0  0  0  0  0  0  0  0  0  0
  -96.6612   29.1323   -8.6630 O   0  0  0  0  0  0  0  0  0  0  0  0
  -95.2045   30.9556   -8.3509 N   0  0  0  0  0  0  0  0  0  0  0  0
  -96.1143   31.0300   -9.3865 H   0  0  0  0  0  0  0  0  0  0  0  0
  -94.6309   32.0662   -8.7243 C   0  0  0  0  0  0  0  0  0  0  0  0
  -94.7016   32.4806  -10.0705 C   0  0  0  0  0  0  0  0  0  0  0  0
  -94.1346   33.6047  -10.5442 C   0  0  0  0  0  0  0  0  0  0  0  0
  -93.4341   34.4054   -9.6712 C   0  0  0  0  0  0  0  0  0  0  0  0
  -93.3201   34.0754   -8.3646 N   0  0  0  0  0  0  0  0  0  0  0  0
  -93.8997   32.9458   -7.8969 C   0  0  0  0  0  0  0  0  0  0  0  0
  -92.7609   35.5861  -10.1182 N   0  0  0  0  0  0  0  0  0  0  0  0
  -93.0261   36.8337   -9.4455 C   0  0  0  0  0  0  0  0  0  0  0  0
  -91.8641   37.7402   -9.2702 C   0  0  0  0  0  0  0  0  0  0  0  0
  -90.6321   37.3656  -10.0157 C   0  0  0  0  0  0  0  0  0  0  0  0
  -90.9241   36.6583  -11.3352 C   0  0  0  0  0  0  0  0  0  0  0  0
  -91.8630   35.5210  -11.2371 C   0  0  0  0  0  0  0  0  0  0  0  0
  -89.7386   38.4286  -10.3115 N   0  0  0  0  0  0  0  0  0  0  0  0
  -89.2428   38.5181  -11.6472 C   0  0  0  0  0  0  0  0  0  0  0  0
  -88.0038   39.1793  -11.0775 C   0  0  0  0  0  0  0  0  0  0  0  0
  -88.4231   38.4666   -9.7932 C   0  0  0  0  0  0  0  0  0  0  0  0
  -89.8531   22.7003   -0.5189 C   0  0  0  0  0  0  0  0  0  0  0  0
  -91.1899   22.0304   -0.3150 C   0  0  0  0  0  0  0  0  0  0  0  0
  -91.3048   21.0043    0.5634 C   0  0  0  0  0  0  0  0  0  0  0  0
  -92.5579   20.3587    0.7131 C   0  0  0  0  0  0  0  0  0  0  0  0
  -93.6487   20.7864   -0.0429 C   0  0  0  0  0  0  0  0  0  0  0  0
  -93.4117   21.8595   -0.9252 C   0  0  0  0  0  0  0  0  0  0  0  0
  -92.2445   22.4739   -1.0709 C   0  0  0  0  0  0  0  0  0  0  0  0
 18 19  2  0  0  0
 19 17  1  0  0  0
 17  1  1  0  0  0
  1  2  1  0  0  0
  2  3  1  0  0  0
  3  4  2  0  0  0
  3  5  1  0  0  0
  5  6  1  0  0  0
  6 20  1  0  0  0
 20 21  1  0  0  0
 21 22  2  0  0  0
 22 23  1  0  0  0
 23 24  2  0  0  0
 24 25  1  0  0  0
 24 26  1  0  0  0
 26 27  2  0  0  0
  6  7  1  0  0  0
  7  8  2  0  0  0
  7  9  1  0  0  0
  9 29  1  0  0  0
 29 30  1  0  0  0
 30 31  2  0  0  0
 31 32  1  0  0  0
 32 33  2  0  0  0
 33 34  1  0  0  0
 34 35  1  0  0  0
 35 40  1  0  0  0
 40 41  2  0  0  0
 40 42  1  0  0  0
 42 44  1  0  0  0
 44 45  2  0  0  0
 45 46  1  0  0  0
 46 47  2  0  0  0
 47 50  1  0  0  0
 50 51  1  0  0  0
 51 52  1  0  0  0
 52 53  1  0  0  0
 53 56  1  0  0  0
 56 57  1  0  0  0
 57 58  1  0  0  0
 58 59  1  0  0  0
 53 54  1  0  0  0
 54 55  1  0  0  0
 47 48  1  0  0  0
 48 49  2  0  0  0
 35 36  2  0  0  0
 36 37  1  0  0  0
 37 38  1  0  0  0
 37 39  1  0  0  0
  9 10  1  0  0  0
 10 11  1  0  0  0
 11 12  1  0  0  0
 12 13  1  0  0  0
 13 14  2  0  0  0
 13 15  1  0  0  0
 15 60  1  0  0  0
 60 61  1  0  0  0
 61 62  2  0  0  0
 62 63  1  0  0  0
 63 64  2  0  0  0
 64 65  1  0  0  0
 65 66  2  0  0  0
 12  1  1  0  0  0
 66 61  1  0  0  0
 11  5  1  0  0  0
 27 21  1  0  0  0
 39 30  1  0  0  0
 39 34  2  0  0  0
 49 44  1  0  0  0
 55 50  1  0  0  0
 59 56  1  0  0  0
 25 28  1  0  0  0
 42 43  1  0  0  0
 15 16  1  0  0  0
M  END
> <minimizedAffinity>
-9.03643

> <CNNscore>
0.0168749355

> <CNNaffinity>
6.3157134056

> <CNN_VS>
0.1065772548

> <CNNaffinity_variance>
1.1297622919

$$$$
[H]Oc1c([H])c([H])c(C([H])([H])[C@@]2([H])C(=O)N(C([H])([H])c3c([H])c([H])c([H])c4c(C(=O)N([H])c5c([H])nc(N6C([H])([H])C([H])([H])C([H])(N7C([H])([H])C([H])([H])C7([H])[H])C([H])([H])C6([H])[H])c([H])c5[H])c([H])n(C([H])([H])[H])c34)C([H])([H])[C@]3([H])N(C(=O)N([H])C([H])([H])c4c([H])c([H])c([H])c([H])c4[H])N(C([H])([H])C([H])=C([H])[H])C([H])([H])C(=O)N23)c([H])c1[H]


 66 74  0  0  0  0  0  0  0  0999 V2000
  -88.5973   29.4761   -2.5724 N   0  0  0  0  0  0  0  0  0  0  0  0
  -87.6650   28.3882   -2.3376 C   0  0  0  0  0  0  0  0  0  0  0  0
  -88.0168   27.9634   -0.9218 C   0  0  0  0  0  0  0  0  0  0  0  0
  -87.0787   27.8829   -0.1082 O   0  0  0  0  0  0  0  0  0  0  0  0
  -89.3463   27.6840   -0.6058 N   0  0  0  0  0  0  0  0  0  0  0  0
  -89.6720   26.7992    0.4762 C   0  0  0  0  0  0  0  0  0  0  0  0
  -90.1154   25.5505   -0.2493 C   0  0  0  0  0  0  0  0  0  0  0  0
  -89.7657   24.4447    0.1265 O   0  0  0  0  0  0  0  0  0  0  0  0
  -90.9482   25.7223   -1.3727 N   0  0  0  0  0  0  0  0  0  0  0  0
  -91.3097   27.0649   -1.8892 C   0  0  0  0  0  0  0  0  0  0  0  0
  -90.4346   28.1745   -1.4092 C   0  0  0  0  0  0  0  0  0  0  0  0
  -89.9494   29.1051   -2.4025 N   0  0  0  0  0  0  0  0  0  0  0  0
  -90.8496   29.7599   -3.2992 C   0  0  0  0  0  0  0  0  0  0  0  0
  -90.3267   30.5187   -4.1834 O   0  0  0  0  0  0  0  0  0  0  0  0
  -92.2467   29.6690   -3.3196 N   0  0  0  0  0  0  0  0  0  0  0  0
  -92.7503   29.0924   -2.6452 H   0  0  0  0  0  0  0  0  0  0  0  0
  -88.1812   30.5057   -1.6319 C   0  0  0  0  0  0  0  0  0  0  0  0
  -88.0168   32.6738   -2.7110 C   0  0  0  0  0  0  0  0  0  0  0  0
  -87.4518   31.6053   -2.2166 C   0  0  0  0  0  0  0  0  0  0  0  0
  -90.6645   27.2228    1.4742 C   0  0  0  0  0  0  0  0  0  0  0  0
  -90.3581   27.0930    2.9009 C   0  0  0  0  0  0  0  0  0  0  0  0
  -90.1724   25.8330    3.4726 C   0  0  0  0  0  0  0  0  0  0  0  0
  -89.9495   25.6988    4.8262 C   0  0  0  0  0  0  0  0  0  0  0  0
  -89.8994   26.7804    5.6828 C   0  0  0  0  0  0  0  0  0  0  0  0
  -89.6694   26.5768    7.0303 O   0  0  0  0  0  0  0  0  0  0  0  0
  -90.0822   28.0160    5.1276 C   0  0  0  0  0  0  0  0  0  0  0  0
  -90.3086   28.1679    3.7597 C   0  0  0  0  0  0  0  0  0  0  0  0
  -89.5329   25.6550    7.4304 H   0  0  0  0  0  0  0  0  0  0  0  0
  -91.5043   24.6167   -2.1546 C   0  0  0  0  0  0  0  0  0  0  0  0
  -92.8502   24.9771   -2.6112 C   0  0  0  0  0  0  0  0  0  0  0  0
  -93.0789   25.4559   -3.8747 C   0  0  0  0  0  0  0  0  0  0  0  0
  -94.3369   25.8520   -4.2952 C   0  0  0  0  0  0  0  0  0  0  0  0
  -95.4108   25.7687   -3.4280 C   0  0  0  0  0  0  0  0  0  0  0  0
  -95.1889   25.2790   -2.1346 C   0  0  0  0  0  0  0  0  0  0  0  0
  -96.0311   25.0664   -1.0951 C   0  0  0  0  0  0  0  0  0  0  0  0
  -95.2800   24.5484   -0.0792 C   0  0  0  0  0  0  0  0  0  0  0  0
  -93.9908   24.4300   -0.4429 N   0  0  0  0  0  0  0  0  0  0  0  0
  -92.9135   23.9215    0.3692 C   0  0  0  0  0  0  0  0  0  0  0  0
  -93.9202   24.8859   -1.7262 C   0  0  0  0  0  0  0  0  0  0  0  0
  -97.5034   25.3484   -0.9818 C   0  0  0  0  0  0  0  0  0  0  0  0
  -98.3041   24.3920   -0.9068 O   0  0  0  0  0  0  0  0  0  0  0  0
  -97.8721   26.7060   -0.9597 N   0  0  0  0  0  0  0  0  0  0  0  0
  -99.1284   26.2959   -0.5609 H   0  0  0  0  0  0  0  0  0  0  0  0
  -98.2324   27.9596   -0.9374 C   0  0  0  0  0  0  0  0  0  0  0  0
  -97.4196   28.9397   -1.5438 C   0  0  0  0  0  0  0  0  0  0  0  0
  -97.7088   30.2534   -1.5620 C   0  0  0  0  0  0  0  0  0  0  0  0
  -98.8645   30.6801   -0.9488 C   0  0  0  0  0  0  0  0  0  0  0  0
  -99.6958   29.8011   -0.3443 N   0  0  0  0  0  0  0  0  0  0  0  0
  -99.3989   28.4811   -0.3373 C   0  0  0  0  0  0  0  0  0  0  0  0
  -99.2057   32.0680   -0.8836 N   0  0  0  0  0  0  0  0  0  0  0  0
  -99.8641   32.5668    0.2985 C   0  0  0  0  0  0  0  0  0  0  0  0
  -99.4611   33.9231    0.7465 C   0  0  0  0  0  0  0  0  0  0  0  0
  -98.6154   34.6946   -0.2041 C   0  0  0  0  0  0  0  0  0  0  0  0
  -98.9120   34.3719   -1.6650 C   0  0  0  0  0  0  0  0  0  0  0  0
  -98.9191   32.9312   -1.9950 C   0  0  0  0  0  0  0  0  0  0  0  0
  -98.6721   36.1077   -0.0786 N   0  0  0  0  0  0  0  0  0  0  0  0
  -97.4360   36.8033    0.0837 C   0  0  0  0  0  0  0  0  0  0  0  0
  -98.2048   37.8665    0.8422 C   0  0  0  0  0  0  0  0  0  0  0  0
  -99.2062   36.7360    1.0706 C   0  0  0  0  0  0  0  0  0  0  0  0
  -93.0416   30.4053   -4.2986 C   0  0  0  0  0  0  0  0  0  0  0  0
  -93.6399   29.4582   -5.3098 C   0  0  0  0  0  0  0  0  0  0  0  0
  -92.8326   28.6475   -6.0369 C   0  0  0  0  0  0  0  0  0  0  0  0
  -93.4065   27.7934   -7.0117 C   0  0  0  0  0  0  0  0  0  0  0  0
  -94.7870   27.8004   -7.2079 C   0  0  0  0  0  0  0  0  0  0  0  0
  -95.5261   28.6853   -6.3973 C   0  0  0  0  0  0  0  0  0  0  0  0
  -95.0003   29.4863   -5.4793 C   0  0  0  0  0  0  0  0  0  0  0  0
 18 19  2  0  0  0
 19 17  1  0  0  0
 17  1  1  0  0  0
  1  2  1  0  0  0
  2  3  1  0  0  0
  3  4  2  0  0  0
  3  5  1  0  0  0
  5  6  1  0  0  0
  6 20  1  0  0  0
 20 21  1  0  0  0
 21 22  2  0  0  0
 22 23  1  0  0  0
 23 24  2  0  0  0
 24 25  1  0  0  0
 24 26  1  0  0  0
 26 27  2  0  0  0
  6  7  1  0  0  0
  7  8  2  0  0  0
  7  9  1  0  0  0
  9 29  1  0  0  0
 29 30  1  0  0  0
 30 31  2  0  0  0
 31 32  1  0  0  0
 32 33  2  0  0  0
 33 34  1  0  0  0
 34 35  1  0  0  0
 35 40  1  0  0  0
 40 41  2  0  0  0
 40 42  1  0  0  0
 42 44  1  0  0  0
 44 45  2  0  0  0
 45 46  1  0  0  0
 46 47  2  0  0  0
 47 50  1  0  0  0
 50 51  1  0  0  0
 51 52  1  0  0  0
 52 53  1  0  0  0
 53 56  1  0  0  0
 56 57  1  0  0  0
 57 58  1  0  0  0
 58 59  1  0  0  0
 53 54  1  0  0  0
 54 55  1  0  0  0
 47 48  1  0  0  0
 48 49  2  0  0  0
 35 36  2  0  0  0
 36 37  1  0  0  0
 37 38  1  0  0  0
 37 39  1  0  0  0
  9 10  1  0  0  0
 10 11  1  0  0  0
 11 12  1  0  0  0
 12 13  1  0  0  0
 13 14  2  0  0  0
 13 15  1  0  0  0
 15 60  1  0  0  0
 60 61  1  0  0  0
 61 62  2  0  0  0
 62 63  1  0  0  0
 63 64  2  0  0  0
 64 65  1  0  0  0
 65 66  2  0  0  0
 12  1  1  0  0  0
 66 61  1  0  0  0
 11  5  1  0  0  0
 27 21  1  0  0  0
 39 30  1  0  0  0
 39 34  2  0  0  0
 49 44  1  0  0  0
 55 50  1  0  0  0
 59 56  1  0  0  0
 25 28  1  0  0  0
 42 43  1  0  0  0
 15 16  1  0  0  0
M  END
> <minimizedAffinity>
-8.42601

> <CNNscore>
0.0161297433

> <CNNaffinity>
6.5946097374

> <CNN_VS>
0.1063693613

> <CNNaffinity_variance>
1.9181855917

$$$$
[H]c1nc(Oc2c([H])c([H])c(C(=O)N([H])C([H])([H])C([H])([H])N3C([H])([H])C([H])([H])C([H])([H])C3([H])[H])c([H])c2[H])c(N([H])S(=O)(=O)c2c([H])c([H])c(Cl)c(Cl)c2[H])c([H])c1Cl


 38 41  0  0  0  0  0  0  0  0999 V2000
  -87.6716   32.9284   -3.5918 C   0  0  0  0  0  0  0  0  0  0  0  0
  -88.8211   33.4574   -4.0485 N   0  0  0  0  0  0  0  0  0  0  0  0
  -89.0759   34.7656   -3.9547 C   0  0  0  0  0  0  0  0  0  0  0  0
  -88.1467   35.5786   -3.3830 C   0  0  0  0  0  0  0  0  0  0  0  0
  -88.4912   37.2955   -3.2643 Cl  0  0  0  0  0  0  0  0  0  0  0  0
  -86.9408   35.0481   -2.9002 C   0  0  0  0  0  0  0  0  0  0  0  0
  -86.6981   33.7005   -3.0053 C   0  0  0  0  0  0  0  0  0  0  0  0
  -85.5054   33.0787   -2.5699 N   0  0  0  0  0  0  0  0  0  0  0  0
  -84.8778   32.5676   -3.2582 H   0  0  0  0  0  0  0  0  0  0  0  0
  -85.0616   33.1468   -0.9151 S   0  0  0  0  0  0  0  0  0  0  0  0
  -83.6557   33.7250   -0.8172 O   0  0  0  0  0  0  0  0  0  0  0  0
  -86.0310   34.1042   -0.2259 O   0  0  0  0  0  0  0  0  0  0  0  0
  -85.0995   31.6401   -0.0788 C   0  0  0  0  0  0  0  0  0  0  0  0
  -86.2821   30.8984    0.0142 C   0  0  0  0  0  0  0  0  0  0  0  0
  -86.2603   29.7125    0.6901 C   0  0  0  0  0  0  0  0  0  0  0  0
  -85.0956   29.2449    1.2753 C   0  0  0  0  0  0  0  0  0  0  0  0
  -85.0846   27.7282    2.1369 Cl  0  0  0  0  0  0  0  0  0  0  0  0
  -83.9196   29.9780    1.1856 C   0  0  0  0  0  0  0  0  0  0  0  0
  -82.4753   29.3527    1.9369 Cl  0  0  0  0  0  0  0  0  0  0  0  0
  -83.9395   31.1846    0.4983 C   0  0  0  0  0  0  0  0  0  0  0  0
  -87.4797   31.5494   -3.7271 O   0  0  0  0  0  0  0  0  0  0  0  0
  -89.4837   28.8591   -1.2073 C   0  0  0  0  0  0  0  0  0  0  0  0
  -88.4255   28.4280   -2.0214 C   0  0  0  0  0  0  0  0  0  0  0  0
  -87.7719   29.3234   -2.8492 C   0  0  0  0  0  0  0  0  0  0  0  0
  -88.1308   30.6491   -2.9025 C   0  0  0  0  0  0  0  0  0  0  0  0
  -89.1693   31.0458   -2.0967 C   0  0  0  0  0  0  0  0  0  0  0  0
  -89.8398   30.1701   -1.2598 C   0  0  0  0  0  0  0  0  0  0  0  0
  -91.3424   28.1481    0.0746 O   0  0  0  0  0  0  0  0  0  0  0  0
  -90.1489   27.9044   -0.3342 C   0  0  0  0  0  0  0  0  0  0  0  0
  -89.5426   26.7063    0.0937 N   0  0  0  0  0  0  0  0  0  0  0  0
  -88.5672   26.5307   -0.2521 H   0  0  0  0  0  0  0  0  0  0  0  0
  -90.1226   25.7133    0.9523 C   0  0  0  0  0  0  0  0  0  0  0  0
  -89.4696   25.7778    2.3055 C   0  0  0  0  0  0  0  0  0  0  0  0
  -90.4205   26.1912    3.2967 N   0  0  0  0  0  0  0  0  0  0  0  0
  -90.6514   27.5922    3.3875 C   0  0  0  0  0  0  0  0  0  0  0  0
  -89.9762   28.0814    4.6581 C   0  0  0  0  0  0  0  0  0  0  0  0
  -89.9755   26.8505    5.5189 C   0  0  0  0  0  0  0  0  0  0  0  0
  -90.1969   25.6713    4.6081 C   0  0  0  0  0  0  0  0  0  0  0  0
 28 29  2  0  0  0
 29 30  1  0  0  0
 30 32  1  0  0  0
 32 33  1  0  0  0
 33 34  1  0  0  0
 34 35  1  0  0  0
 35 36  1  0  0  0
 36 37  1  0  0  0
 37 38  1  0  0  0
 29 22  1  0  0  0
 22 23  2  0  0  0
 23 24  1  0  0  0
 24 25  2  0  0  0
 25 21  1  0  0  0
 21  1  1  0  0  0
  1  2  2  0  0  0
  2  3  1  0  0  0
  3  4  2  0  0  0
  4  5  1  0  0  0
  4  6  1  0  0  0
  6  7  2  0  0  0
  7  8  1  0  0  0
  8 10  1  0  0  0
 10 11  2  0  0  0
 10 12  2  0  0  0
 10 13  1  0  0  0
 13 14  2  0  0  0
 14 15  1  0  0  0
 15 16  2  0  0  0
 16 17  1  0  0  0
 16 18  1  0  0  0
 18 19  1  0  0  0
 18 20  2  0  0  0
 25 26  1  0  0  0
 26 27  2  0  0  0
 38 34  1  0  0  0
 27 22  1  0  0  0
  7  1  1  0  0  0
 20 13  1  0  0  0
 30 31  1  0  0  0
  8  9  1  0  0  0
M  END
> <minimizedAffinity>
-9.50451

> <CNNscore>
0.5476970077

> <CNNaffinity>
7.3948197365

> <CNN_VS>
4.0501208305

> <CNNaffinity_variance>
0.5606983900

$$$$
[H]c1nc(Oc2c([H])c([H])c(C(=O)N([H])C([H])([H])C([H])([H])N3C([H])([H])C([H])([H])C([H])([H])C3([H])[H])c([H])c2[H])c(N([H])S(=O)(=O)c2c([H])c([H])c(Cl)c(Cl)c2[H])c([H])c1Cl


 38 41  0  0  0  0  0  0  0  0999 V2000
  -88.5904   27.0615    0.0734 C   0  0  0  0  0  0  0  0  0  0  0  0
  -89.9242   26.9174    0.1728 N   0  0  0  0  0  0  0  0  0  0  0  0
  -90.4942   26.4123    1.2706 C   0  0  0  0  0  0  0  0  0  0  0  0
  -89.7019   26.0363    2.3109 C   0  0  0  0  0  0  0  0  0  0  0  0
  -90.4604   25.3736    3.7483 Cl  0  0  0  0  0  0  0  0  0  0  0  0
  -88.3084   26.1780    2.2287 C   0  0  0  0  0  0  0  0  0  0  0  0
  -87.7418   26.6987    1.0913 C   0  0  0  0  0  0  0  0  0  0  0  0
  -86.3524   26.9010    0.9250 N   0  0  0  0  0  0  0  0  0  0  0  0
  -85.8337   26.4589    0.1100 H   0  0  0  0  0  0  0  0  0  0  0  0
  -85.4900   27.8690    2.0471 S   0  0  0  0  0  0  0  0  0  0  0  0
  -86.4366   28.2567    3.1759 O   0  0  0  0  0  0  0  0  0  0  0  0
  -84.3718   27.0043    2.6246 O   0  0  0  0  0  0  0  0  0  0  0  0
  -84.7875   29.3026    1.3973 C   0  0  0  0  0  0  0  0  0  0  0  0
  -83.4266   29.5784    1.5685 C   0  0  0  0  0  0  0  0  0  0  0  0
  -82.9193   30.7289    1.0369 C   0  0  0  0  0  0  0  0  0  0  0  0
  -83.7279   31.6116    0.3405 C   0  0  0  0  0  0  0  0  0  0  0  0
  -83.0648   33.0783   -0.3314 Cl  0  0  0  0  0  0  0  0  0  0  0  0
  -85.0793   31.3417    0.1685 C   0  0  0  0  0  0  0  0  0  0  0  0
  -86.0618   32.4799   -0.7151 Cl  0  0  0  0  0  0  0  0  0  0  0  0
  -85.5973   30.1718    0.7083 C   0  0  0  0  0  0  0  0  0  0  0  0
  -88.0705   27.5985   -1.1090 O   0  0  0  0  0  0  0  0  0  0  0  0
  -89.0515   31.5027   -2.2915 C   0  0  0  0  0  0  0  0  0  0  0  0
  -88.4487   30.6103   -3.1907 C   0  0  0  0  0  0  0  0  0  0  0  0
  -88.1287   29.3252   -2.7902 C   0  0  0  0  0  0  0  0  0  0  0  0
  -88.3868   28.8830   -1.5147 C   0  0  0  0  0  0  0  0  0  0  0  0
  -88.9767   29.7753   -0.6539 C   0  0  0  0  0  0  0  0  0  0  0  0
  -89.3067   31.0663   -1.0294 C   0  0  0  0  0  0  0  0  0  0  0  0
  -88.8906   33.8587   -2.1267 O   0  0  0  0  0  0  0  0  0  0  0  0
  -89.3923   32.8451   -2.7365 C   0  0  0  0  0  0  0  0  0  0  0  0
  -90.2582   33.0960   -3.8198 N   0  0  0  0  0  0  0  0  0  0  0  0
  -90.6564   32.2522   -4.3006 H   0  0  0  0  0  0  0  0  0  0  0  0
  -90.6483   34.3823   -4.3228 C   0  0  0  0  0  0  0  0  0  0  0  0
  -89.8844   34.6800   -5.5837 C   0  0  0  0  0  0  0  0  0  0  0  0
  -89.2249   35.9493   -5.4768 N   0  0  0  0  0  0  0  0  0  0  0  0
  -87.8381   35.9558   -5.7947 C   0  0  0  0  0  0  0  0  0  0  0  0
  -87.0742   36.0946   -4.4884 C   0  0  0  0  0  0  0  0  0  0  0  0
  -88.0632   36.8051   -3.6090 C   0  0  0  0  0  0  0  0  0  0  0  0
  -89.4209   36.6340   -4.2388 C   0  0  0  0  0  0  0  0  0  0  0  0
 28 29  2  0  0  0
 29 30  1  0  0  0
 30 32  1  0  0  0
 32 33  1  0  0  0
 33 34  1  0  0  0
 34 35  1  0  0  0
 35 36  1  0  0  0
 36 37  1  0  0  0
 37 38  1  0  0  0
 29 22  1  0  0  0
 22 23  2  0  0  0
 23 24  1  0  0  0
 24 25  2  0  0  0
 25 21  1  0  0  0
 21  1  1  0  0  0
  1  2  2  0  0  0
  2  3  1  0  0  0
  3  4  2  0  0  0
  4  5  1  0  0  0
  4  6  1  0  0  0
  6  7  2  0  0  0
  7  8  1  0  0  0
  8 10  1  0  0  0
 10 11  2  0  0  0
 10 12  2  0  0  0
 10 13  1  0  0  0
 13 14  2  0  0  0
 14 15  1  0  0  0
 15 16  2  0  0  0
 16 17  1  0  0  0
 16 18  1  0  0  0
 18 19  1  0  0  0
 18 20  2  0  0  0
 25 26  1  0  0  0
 26 27  2  0  0  0
 38 34  1  0  0  0
 27 22  1  0  0  0
  7  1  1  0  0  0
 20 13  1  0  0  0
 30 31  1  0  0  0
  8  9  1  0  0  0
M  END
> <minimizedAffinity>
-8.71780

> <CNNscore>
0.4312432408

> <CNNaffinity>
7.5261240005

> <CNN_VS>
3.2455902100

> <CNNaffinity_variance>
0.2866318822

$$$$
[H]c1nc(Oc2c([H])c([H])c(C(=O)N([H])C([H])([H])C([H])([H])N3C([H])([H])C([H])([H])C([H])([H])C3([H])[H])c([H])c2[H])c(N([H])S(=O)(=O)c2c([H])c([H])c(Cl)c(Cl)c2[H])c([H])c1Cl


 38 41  0  0  0  0  0  0  0  0999 V2000
  -87.9492   32.6425   -4.2586 C   0  0  0  0  0  0  0  0  0  0  0  0
  -88.9266   33.1110   -5.0555 N   0  0  0  0  0  0  0  0  0  0  0  0
  -89.2337   34.4107   -5.0970 C   0  0  0  0  0  0  0  0  0  0  0  0
  -88.5377   35.2776   -4.3126 C   0  0  0  0  0  0  0  0  0  0  0  0
  -88.9492   36.9828   -4.3742 Cl  0  0  0  0  0  0  0  0  0  0  0  0
  -87.5141   34.8107   -3.4742 C   0  0  0  0  0  0  0  0  0  0  0  0
  -87.2142   33.4708   -3.4454 C   0  0  0  0  0  0  0  0  0  0  0  0
  -86.1866   32.9106   -2.6521 N   0  0  0  0  0  0  0  0  0  0  0  0
  -85.3262   32.4809   -3.1036 H   0  0  0  0  0  0  0  0  0  0  0  0
  -86.3246   32.9220   -0.9430 S   0  0  0  0  0  0  0  0  0  0  0  0
  -86.0736   34.3411   -0.4493 O   0  0  0  0  0  0  0  0  0  0  0  0
  -87.7620   32.5351   -0.6029 O   0  0  0  0  0  0  0  0  0  0  0  0
  -85.2620   31.8505   -0.1103 C   0  0  0  0  0  0  0  0  0  0  0  0
  -83.9499   32.2299    0.1928 C   0  0  0  0  0  0  0  0  0  0  0  0
  -83.1471   31.3436    0.8513 C   0  0  0  0  0  0  0  0  0  0  0  0
  -83.6132   30.0916    1.2160 C   0  0  0  0  0  0  0  0  0  0  0  0
  -82.5744   28.9698    2.0557 Cl  0  0  0  0  0  0  0  0  0  0  0  0
  -84.9149   29.7109    0.9169 C   0  0  0  0  0  0  0  0  0  0  0  0
  -85.4617   28.1252    1.3943 Cl  0  0  0  0  0  0  0  0  0  0  0  0
  -85.7333   30.6111    0.2473 C   0  0  0  0  0  0  0  0  0  0  0  0
  -87.6879   31.2684   -4.2722 O   0  0  0  0  0  0  0  0  0  0  0  0
  -89.4448   28.6483   -1.5059 C   0  0  0  0  0  0  0  0  0  0  0  0
  -90.1157   29.8077   -1.9228 C   0  0  0  0  0  0  0  0  0  0  0  0
  -89.5270   30.6653   -2.8350 C   0  0  0  0  0  0  0  0  0  0  0  0
  -88.2810   30.4152   -3.3584 C   0  0  0  0  0  0  0  0  0  0  0  0
  -87.6451   29.2746   -2.9343 C   0  0  0  0  0  0  0  0  0  0  0  0
  -88.2119   28.4003   -2.0227 C   0  0  0  0  0  0  0  0  0  0  0  0
  -91.2698   28.0236   -0.1338 O   0  0  0  0  0  0  0  0  0  0  0  0
  -90.0870   27.7528   -0.5563 C   0  0  0  0  0  0  0  0  0  0  0  0
  -89.4693   26.5840   -0.0676 N   0  0  0  0  0  0  0  0  0  0  0  0
  -88.5030   26.3854   -0.4261 H   0  0  0  0  0  0  0  0  0  0  0  0
  -90.0267   25.6491    0.8678 C   0  0  0  0  0  0  0  0  0  0  0  0
  -89.4021   25.8601    2.2196 C   0  0  0  0  0  0  0  0  0  0  0  0
  -90.4044   26.2268    3.1780 N   0  0  0  0  0  0  0  0  0  0  0  0
  -90.6553   27.6211    3.3095 C   0  0  0  0  0  0  0  0  0  0  0  0
  -90.0478   28.0686    4.6287 C   0  0  0  0  0  0  0  0  0  0  0  0
  -90.0746   26.8061    5.4421 C   0  0  0  0  0  0  0  0  0  0  0  0
  -90.2383   25.6600    4.4785 C   0  0  0  0  0  0  0  0  0  0  0  0
 28 29  2  0  0  0
 29 30  1  0  0  0
 30 32  1  0  0  0
 32 33  1  0  0  0
 33 34  1  0  0  0
 34 35  1  0  0  0
 35 36  1  0  0  0
 36 37  1  0  0  0
 37 38  1  0  0  0
 29 22  1  0  0  0
 22 23  2  0  0  0
 23 24  1  0  0  0
 24 25  2  0  0  0
 25 21  1  0  0  0
 21  1  1  0  0  0
  1  2  2  0  0  0
  2  3  1  0  0  0
  3  4  2  0  0  0
  4  5  1  0  0  0
  4  6  1  0  0  0
  6  7  2  0  0  0
  7  8  1  0  0  0
  8 10  1  0  0  0
 10 11  2  0  0  0
 10 12  2  0  0  0
 10 13  1  0  0  0
 13 14  2  0  0  0
 14 15  1  0  0  0
 15 16  2  0  0  0
 16 17  1  0  0  0
 16 18  1  0  0  0
 18 19  1  0  0  0
 18 20  2  0  0  0
 25 26  1  0  0  0
 26 27  2  0  0  0
 38 34  1  0  0  0
 27 22  1  0  0  0
  7  1  1  0  0  0
 20 13  1  0  0  0
 30 31  1  0  0  0
  8  9  1  0  0  0
M  END
> <minimizedAffinity>
-9.25244

> <CNNscore>
0.3027225733

> <CNNaffinity>
7.1978712082

> <CNN_VS>
2.1789581776

> <CNNaffinity_variance>
0.3623016477

$$$$
[H]c1nc(Oc2c([H])c([H])c(C(=O)N([H])C([H])([H])C([H])([H])N3C([H])([H])C([H])([H])C([H])([H])C3([H])[H])c([H])c2[H])c(N([H])S(=O)(=O)c2c([H])c([H])c(Cl)c(Cl)c2[H])c([H])c1Cl


 38 41  0  0  0  0  0  0  0  0999 V2000
  -87.9702   32.5617   -4.1748 C   0  0  0  0  0  0  0  0  0  0  0  0
  -88.9690   33.0016   -4.9613 N   0  0  0  0  0  0  0  0  0  0  0  0
  -89.2845   34.2980   -5.0334 C   0  0  0  0  0  0  0  0  0  0  0  0
  -88.5750   35.1911   -4.2917 C   0  0  0  0  0  0  0  0  0  0  0  0
  -88.9976   36.8916   -4.3933 Cl  0  0  0  0  0  0  0  0  0  0  0  0
  -87.5290   34.7541   -3.4648 C   0  0  0  0  0  0  0  0  0  0  0  0
  -87.2208   33.4173   -3.4040 C   0  0  0  0  0  0  0  0  0  0  0  0
  -86.1714   32.8858   -2.6196 N   0  0  0  0  0  0  0  0  0  0  0  0
  -85.3063   32.4739   -3.0785 H   0  0  0  0  0  0  0  0  0  0  0  0
  -86.2903   32.9035   -0.9091 S   0  0  0  0  0  0  0  0  0  0  0  0
  -86.0186   34.3211   -0.4224 O   0  0  0  0  0  0  0  0  0  0  0  0
  -87.7279   32.5329   -0.5519 O   0  0  0  0  0  0  0  0  0  0  0  0
  -85.2300   31.8229   -0.0850 C   0  0  0  0  0  0  0  0  0  0  0  0
  -83.8607   32.0932    0.0125 C   0  0  0  0  0  0  0  0  0  0  0  0
  -83.0629   31.2041    0.6732 C   0  0  0  0  0  0  0  0  0  0  0  0
  -83.5893   30.0549    1.2389 C   0  0  0  0  0  0  0  0  0  0  0  0
  -82.5561   28.9279    2.0787 Cl  0  0  0  0  0  0  0  0  0  0  0  0
  -84.9478   29.7828    1.1443 C   0  0  0  0  0  0  0  0  0  0  0  0
  -85.5694   28.3244    1.8710 Cl  0  0  0  0  0  0  0  0  0  0  0  0
  -85.7613   30.6860    0.4728 C   0  0  0  0  0  0  0  0  0  0  0  0
  -87.7015   31.1891   -4.1544 O   0  0  0  0  0  0  0  0  0  0  0  0
  -89.2903   28.6656   -1.2030 C   0  0  0  0  0  0  0  0  0  0  0  0
  -90.0802   29.6609   -1.7979 C   0  0  0  0  0  0  0  0  0  0  0  0
  -89.5461   30.4881   -2.7698 C   0  0  0  0  0  0  0  0  0  0  0  0
  -88.2406   30.3658   -3.1818 C   0  0  0  0  0  0  0  0  0  0  0  0
  -87.4885   29.3848   -2.5841 C   0  0  0  0  0  0  0  0  0  0  0  0
  -87.9986   28.5442   -1.6094 C   0  0  0  0  0  0  0  0  0  0  0  0
  -91.0343   28.0770    0.2856 O   0  0  0  0  0  0  0  0  0  0  0  0
  -89.8750   27.7975   -0.1926 C   0  0  0  0  0  0  0  0  0  0  0  0
  -89.2253   26.6465    0.2969 N   0  0  0  0  0  0  0  0  0  0  0  0
  -88.2791   26.4403   -0.1078 H   0  0  0  0  0  0  0  0  0  0  0  0
  -89.7259   25.7389    1.2896 C   0  0  0  0  0  0  0  0  0  0  0  0
  -90.1447   24.4546    0.6284 C   0  0  0  0  0  0  0  0  0  0  0  0
  -91.0114   23.7095    1.4951 N   0  0  0  0  0  0  0  0  0  0  0  0
  -91.1142   24.1895    2.8306 C   0  0  0  0  0  0  0  0  0  0  0  0
  -90.3438   23.2268    3.7189 C   0  0  0  0  0  0  0  0  0  0  0  0
  -90.4136   21.9432    2.9420 C   0  0  0  0  0  0  0  0  0  0  0  0
  -90.7772   22.3008    1.5246 C   0  0  0  0  0  0  0  0  0  0  0  0
 28 29  2  0  0  0
 29 30  1  0  0  0
 30 32  1  0  0  0
 32 33  1  0  0  0
 33 34  1  0  0  0
 34 35  1  0  0  0
 35 36  1  0  0  0
 36 37  1  0  0  0
 37 38  1  0  0  0
 29 22  1  0  0  0
 22 23  2  0  0  0
 23 24  1  0  0  0
 24 25  2  0  0  0
 25 21  1  0  0  0
 21  1  1  0  0  0
  1  2  2  0  0  0
  2  3  1  0  0  0
  3  4  2  0  0  0
  4  5  1  0  0  0
  4  6  1  0  0  0
  6  7  2  0  0  0
  7  8  1  0  0  0
  8 10  1  0  0  0
 10 11  2  0  0  0
 10 12  2  0  0  0
 10 13  1  0  0  0
 13 14  2  0  0  0
 14 15  1  0  0  0
 15 16  2  0  0  0
 16 17  1  0  0  0
 16 18  1  0  0  0
 18 19  1  0  0  0
 18 20  2  0  0  0
 25 26  1  0  0  0
 26 27  2  0  0  0
 38 34  1  0  0  0
 27 22  1  0  0  0
  7  1  1  0  0  0
 20 13  1  0  0  0
 30 31  1  0  0  0
  8  9  1  0  0  0
M  END
> <minimizedAffinity>
-8.74524

> <CNNscore>
0.2284147590

> <CNNaffinity>
6.9511909485

> <CNN_VS>
1.5877546072

> <CNNaffinity_variance>
0.3839927316

$$$$
[H]c1nc(Oc2c([H])c([H])c(C(=O)N([H])C([H])([H])C([H])([H])N3C([H])([H])C([H])([H])C([H])([H])C3([H])[H])c([H])c2[H])c(N([H])S(=O)(=O)c2c([H])c([H])c(Cl)c(Cl)c2[H])c([H])c1Cl


 38 41  0  0  0  0  0  0  0  0999 V2000
  -90.8047   28.7361    0.8913 C   0  0  0  0  0  0  0  0  0  0  0  0
  -91.4278   29.2393    1.9722 N   0  0  0  0  0  0  0  0  0  0  0  0
  -91.1852   28.7733    3.2006 C   0  0  0  0  0  0  0  0  0  0  0  0
  -90.2848   27.7653    3.3571 C   0  0  0  0  0  0  0  0  0  0  0  0
  -89.9736   27.1599    4.9749 Cl  0  0  0  0  0  0  0  0  0  0  0  0
  -89.6233   27.2258    2.2435 C   0  0  0  0  0  0  0  0  0  0  0  0
  -89.8871   27.7182    0.9890 C   0  0  0  0  0  0  0  0  0  0  0  0
  -89.2545   27.2556   -0.1878 N   0  0  0  0  0  0  0  0  0  0  0  0
  -89.8280   26.9681   -1.0347 H   0  0  0  0  0  0  0  0  0  0  0  0
  -87.5441   27.1555   -0.2551 S   0  0  0  0  0  0  0  0  0  0  0  0
  -87.1203   25.7929    0.2781 O   0  0  0  0  0  0  0  0  0  0  0  0
  -87.1432   27.2493   -1.7255 O   0  0  0  0  0  0  0  0  0  0  0  0
  -86.6989   28.3783    0.6174 C   0  0  0  0  0  0  0  0  0  0  0  0
  -86.1650   28.1193    1.8845 C   0  0  0  0  0  0  0  0  0  0  0  0
  -85.5068   29.1226    2.5356 C   0  0  0  0  0  0  0  0  0  0  0  0
  -85.3654   30.3748    1.9615 C   0  0  0  0  0  0  0  0  0  0  0  0
  -84.5229   31.6467    2.8072 Cl  0  0  0  0  0  0  0  0  0  0  0  0
  -85.8940   30.6361    0.7041 C   0  0  0  0  0  0  0  0  0  0  0  0
  -85.6932   32.2267    0.0177 Cl  0  0  0  0  0  0  0  0  0  0  0  0
  -86.5637   29.6169    0.0399 C   0  0  0  0  0  0  0  0  0  0  0  0
  -91.1132   29.2782   -0.3608 O   0  0  0  0  0  0  0  0  0  0  0  0
  -88.6949   32.2479   -2.0743 C   0  0  0  0  0  0  0  0  0  0  0  0
  -89.0649   31.1112   -2.8086 C   0  0  0  0  0  0  0  0  0  0  0  0
  -89.8622   30.1375   -2.2337 C   0  0  0  0  0  0  0  0  0  0  0  0
  -90.3143   30.2479   -0.9404 C   0  0  0  0  0  0  0  0  0  0  0  0
  -89.9380   31.3691   -0.2430 C   0  0  0  0  0  0  0  0  0  0  0  0
  -89.1411   32.3577   -0.7947 C   0  0  0  0  0  0  0  0  0  0  0  0
  -86.6885   32.9585   -3.1101 O   0  0  0  0  0  0  0  0  0  0  0  0
  -87.8671   33.2664   -2.7018 C   0  0  0  0  0  0  0  0  0  0  0  0
  -88.2979   34.5953   -2.8885 N   0  0  0  0  0  0  0  0  0  0  0  0
  -89.2635   34.8225   -2.5452 H   0  0  0  0  0  0  0  0  0  0  0  0
  -87.5496   35.6600   -3.4936 C   0  0  0  0  0  0  0  0  0  0  0  0
  -88.3577   36.9277   -3.4505 C   0  0  0  0  0  0  0  0  0  0  0  0
  -88.5170   37.4602   -4.7729 N   0  0  0  0  0  0  0  0  0  0  0  0
  -89.4855   36.8122   -5.5893 C   0  0  0  0  0  0  0  0  0  0  0  0
  -88.7315   35.9982   -6.6277 C   0  0  0  0  0  0  0  0  0  0  0  0
  -87.4330   36.7444   -6.7435 C   0  0  0  0  0  0  0  0  0  0  0  0
  -87.3075   37.6106   -5.5176 C   0  0  0  0  0  0  0  0  0  0  0  0
 28 29  2  0  0  0
 29 30  1  0  0  0
 30 32  1  0  0  0
 32 33  1  0  0  0
 33 34  1  0  0  0
 34 35  1  0  0  0
 35 36  1  0  0  0
 36 37  1  0  0  0
 37 38  1  0  0  0
 29 22  1  0  0  0
 22 23  2  0  0  0
 23 24  1  0  0  0
 24 25  2  0  0  0
 25 21  1  0  0  0
 21  1  1  0  0  0
  1  2  2  0  0  0
  2  3  1  0  0  0
  3  4  2  0  0  0
  4  5  1  0  0  0
  4  6  1  0  0  0
  6  7  2  0  0  0
  7  8  1  0  0  0
  8 10  1  0  0  0
 10 11  2  0  0  0
 10 12  2  0  0  0
 10 13  1  0  0  0
 13 14  2  0  0  0
 14 15  1  0  0  0
 15 16  2  0  0  0
 16 17  1  0  0  0
 16 18  1  0  0  0
 18 19  1  0  0  0
 18 20  2  0  0  0
 25 26  1  0  0  0
 26 27  2  0  0  0
 38 34  1  0  0  0
 27 22  1  0  0  0
  7  1  1  0  0  0
 20 13  1  0  0  0
 30 31  1  0  0  0
  8  9  1  0  0  0
M  END
> <minimizedAffinity>
-8.49637

> <CNNscore>
0.1644435674

> <CNNaffinity>
6.7993402481

> <CNN_VS>
1.1181077957

> <CNNaffinity_variance>
0.4978877604

$$$$
[H]c1nc(Oc2c([H])c([H])c(C(=O)N([H])C([H])([H])C([H])([H])N3C([H])([H])C([H])([H])C([H])([H])C3([H])[H])c([H])c2[H])c(N([H])S(=O)(=O)c2c([H])c([H])c(Cl)c(Cl)c2[H])c([H])c1Cl


 38 41  0  0  0  0  0  0  0  0999 V2000
  -85.5825   29.4705    1.8671 C   0  0  0  0  0  0  0  0  0  0  0  0
  -84.3177   29.3803    2.3163 N   0  0  0  0  0  0  0  0  0  0  0  0
  -83.3220   30.0662    1.7477 C   0  0  0  0  0  0  0  0  0  0  0  0
  -83.5993   30.8746    0.6890 C   0  0  0  0  0  0  0  0  0  0  0  0
  -82.2842   31.7710   -0.0511 Cl  0  0  0  0  0  0  0  0  0  0  0  0
  -84.9115   30.9838    0.2043 C   0  0  0  0  0  0  0  0  0  0  0  0
  -85.9209   30.2699    0.8021 C   0  0  0  0  0  0  0  0  0  0  0  0
  -87.2749   30.3327    0.4003 N   0  0  0  0  0  0  0  0  0  0  0  0
  -88.0189   30.7103    1.0580 H   0  0  0  0  0  0  0  0  0  0  0  0
  -87.7274   29.7955   -1.1640 S   0  0  0  0  0  0  0  0  0  0  0  0
  -86.7114   28.7606   -1.6301 O   0  0  0  0  0  0  0  0  0  0  0  0
  -89.0888   29.1168   -1.0328 O   0  0  0  0  0  0  0  0  0  0  0  0
  -87.8488   31.0297   -2.3611 C   0  0  0  0  0  0  0  0  0  0  0  0
  -88.0686   30.7092   -3.7051 C   0  0  0  0  0  0  0  0  0  0  0  0
  -88.1541   31.7234   -4.6150 C   0  0  0  0  0  0  0  0  0  0  0  0
  -88.0270   33.0460   -4.2248 C   0  0  0  0  0  0  0  0  0  0  0  0
  -88.1372   34.3304   -5.3999 Cl  0  0  0  0  0  0  0  0  0  0  0  0
  -87.8085   33.3685   -2.8918 C   0  0  0  0  0  0  0  0  0  0  0  0
  -87.6543   35.0467   -2.4434 Cl  0  0  0  0  0  0  0  0  0  0  0  0
  -87.7214   32.3383   -1.9646 C   0  0  0  0  0  0  0  0  0  0  0  0
  -86.5689   28.7207    2.5165 O   0  0  0  0  0  0  0  0  0  0  0  0
  -88.7375   25.7261    0.5334 C   0  0  0  0  0  0  0  0  0  0  0  0
  -87.3542   25.8581    0.3403 C   0  0  0  0  0  0  0  0  0  0  0  0
  -86.6487   26.8495    0.9986 C   0  0  0  0  0  0  0  0  0  0  0  0
  -87.2695   27.7283    1.8540 C   0  0  0  0  0  0  0  0  0  0  0  0
  -88.6235   27.5785    2.0256 C   0  0  0  0  0  0  0  0  0  0  0  0
  -89.3525   26.5952    1.3789 C   0  0  0  0  0  0  0  0  0  0  0  0
  -90.3168   24.9768   -1.0629 O   0  0  0  0  0  0  0  0  0  0  0  0
  -89.4584   24.6684   -0.1580 C   0  0  0  0  0  0  0  0  0  0  0  0
  -89.2609   23.3004    0.1175 N   0  0  0  0  0  0  0  0  0  0  0  0
  -88.5561   23.0741    0.8616 H   0  0  0  0  0  0  0  0  0  0  0  0
  -89.9271   22.1962   -0.5124 C   0  0  0  0  0  0  0  0  0  0  0  0
  -90.6167   21.3644    0.5338 C   0  0  0  0  0  0  0  0  0  0  0  0
  -89.7874   21.2430    1.6979 N   0  0  0  0  0  0  0  0  0  0  0  0
  -88.9324   20.1063    1.7338 C   0  0  0  0  0  0  0  0  0  0  0  0
  -89.5117   19.1352    2.7492 C   0  0  0  0  0  0  0  0  0  0  0  0
  -90.2646   20.0467    3.6757 C   0  0  0  0  0  0  0  0  0  0  0  0
  -90.4730   21.3482    2.9464 C   0  0  0  0  0  0  0  0  0  0  0  0
 28 29  2  0  0  0
 29 30  1  0  0  0
 30 32  1  0  0  0
 32 33  1  0  0  0
 33 34  1  0  0  0
 34 35  1  0  0  0
 35 36  1  0  0  0
 36 37  1  0  0  0
 37 38  1  0  0  0
 29 22  1  0  0  0
 22 23  2  0  0  0
 23 24  1  0  0  0
 24 25  2  0  0  0
 25 21  1  0  0  0
 21  1  1  0  0  0
  1  2  2  0  0  0
  2  3  1  0  0  0
  3  4  2  0  0  0
  4  5  1  0  0  0
  4  6  1  0  0  0
  6  7  2  0  0  0
  7  8  1  0  0  0
  8 10  1  0  0  0
 10 11  2  0  0  0
 10 12  2  0  0  0
 10 13  1  0  0  0
 13 14  2  0  0  0
 14 15  1  0  0  0
 15 16  2  0  0  0
 16 17  1  0  0  0
 16 18  1  0  0  0
 18 19  1  0  0  0
 18 20  2  0  0  0
 25 26  1  0  0  0
 26 27  2  0  0  0
 38 34  1  0  0  0
 27 22  1  0  0  0
  7  1  1  0  0  0
 20 13  1  0  0  0
 30 31  1  0  0  0
  8  9  1  0  0  0
M  END
> <minimizedAffinity>
-7.80767

> <CNNscore>
0.1242132038

> <CNNaffinity>
6.7279105186

> <CNN_VS>
0.8356953263

> <CNNaffinity_variance>
0.2353160083

$$$$
[H]c1nc(Oc2c([H])c([H])c(C(=O)N([H])C([H])([H])C([H])([H])N3C([H])([H])C([H])([H])C([H])([H])C3([H])[H])c([H])c2[H])c(N([H])S(=O)(=O)c2c([H])c([H])c(Cl)c(Cl)c2[H])c([H])c1Cl


 38 41  0  0  0  0  0  0  0  0999 V2000
  -89.2343   27.8696   -2.5579 C   0  0  0  0  0  0  0  0  0  0  0  0
  -90.3953   27.8779   -3.2373 N   0  0  0  0  0  0  0  0  0  0  0  0
  -91.4816   27.2520   -2.7753 C   0  0  0  0  0  0  0  0  0  0  0  0
  -91.4067   26.5920   -1.5879 C   0  0  0  0  0  0  0  0  0  0  0  0
  -92.8392   25.7728   -0.9899 Cl  0  0  0  0  0  0  0  0  0  0  0  0
  -90.2059   26.5707   -0.8625 C   0  0  0  0  0  0  0  0  0  0  0  0
  -89.1002   27.2195   -1.3549 C   0  0  0  0  0  0  0  0  0  0  0  0
  -87.8557   27.2734   -0.6861 N   0  0  0  0  0  0  0  0  0  0  0  0
  -87.0197   26.7288   -1.0513 H   0  0  0  0  0  0  0  0  0  0  0  0
  -87.6875   28.2260    0.7296 S   0  0  0  0  0  0  0  0  0  0  0  0
  -88.9106   29.1258    0.8525 O   0  0  0  0  0  0  0  0  0  0  0  0
  -87.6658   27.2686    1.9189 O   0  0  0  0  0  0  0  0  0  0  0  0
  -86.2710   29.2059    0.7952 C   0  0  0  0  0  0  0  0  0  0  0  0
  -86.2679   30.5022    0.2686 C   0  0  0  0  0  0  0  0  0  0  0  0
  -85.1196   31.2367    0.3427 C   0  0  0  0  0  0  0  0  0  0  0  0
  -83.9757   30.7176    0.9256 C   0  0  0  0  0  0  0  0  0  0  0  0
  -82.5158   31.6684    1.0112 Cl  0  0  0  0  0  0  0  0  0  0  0  0
  -83.9744   29.4314    1.4493 C   0  0  0  0  0  0  0  0  0  0  0  0
  -82.5125   28.8164    2.1746 Cl  0  0  0  0  0  0  0  0  0  0  0  0
  -85.1416   28.6825    1.3751 C   0  0  0  0  0  0  0  0  0  0  0  0
  -88.1422   28.5486   -3.1084 O   0  0  0  0  0  0  0  0  0  0  0  0
  -88.0975   32.7266   -3.4898 C   0  0  0  0  0  0  0  0  0  0  0  0
  -88.5537   32.1181   -2.3108 C   0  0  0  0  0  0  0  0  0  0  0  0
  -88.5648   30.7394   -2.1958 C   0  0  0  0  0  0  0  0  0  0  0  0
  -88.1349   29.9278   -3.2183 C   0  0  0  0  0  0  0  0  0  0  0  0
  -87.6938   30.5475   -4.3614 C   0  0  0  0  0  0  0  0  0  0  0  0
  -87.6725   31.9246   -4.5020 C   0  0  0  0  0  0  0  0  0  0  0  0
  -89.0181   34.8579   -3.0276 O   0  0  0  0  0  0  0  0  0  0  0  0
  -88.0813   34.1781   -3.5853 C   0  0  0  0  0  0  0  0  0  0  0  0
  -87.0747   34.8894   -4.2689 N   0  0  0  0  0  0  0  0  0  0  0  0
  -86.3217   34.3119   -4.7174 H   0  0  0  0  0  0  0  0  0  0  0  0
  -86.9822   36.3142   -4.4136 C   0  0  0  0  0  0  0  0  0  0  0  0
  -87.0136   36.6726   -5.8740 C   0  0  0  0  0  0  0  0  0  0  0  0
  -86.7567   38.0731   -6.0473 N   0  0  0  0  0  0  0  0  0  0  0  0
  -87.4085   38.6907   -7.1510 C   0  0  0  0  0  0  0  0  0  0  0  0
  -86.3531   38.9508   -8.2130 C   0  0  0  0  0  0  0  0  0  0  0  0
  -85.0961   39.0663   -7.3988 C   0  0  0  0  0  0  0  0  0  0  0  0
  -85.3768   38.4415   -6.0572 C   0  0  0  0  0  0  0  0  0  0  0  0
 28 29  2  0  0  0
 29 30  1  0  0  0
 30 32  1  0  0  0
 32 33  1  0  0  0
 33 34  1  0  0  0
 34 35  1  0  0  0
 35 36  1  0  0  0
 36 37  1  0  0  0
 37 38  1  0  0  0
 29 22  1  0  0  0
 22 23  2  0  0  0
 23 24  1  0  0  0
 24 25  2  0  0  0
 25 21  1  0  0  0
 21  1  1  0  0  0
  1  2  2  0  0  0
  2  3  1  0  0  0
  3  4  2  0  0  0
  4  5  1  0  0  0
  4  6  1  0  0  0
  6  7  2  0  0  0
  7  8  1  0  0  0
  8 10  1  0  0  0
 10 11  2  0  0  0
 10 12  2  0  0  0
 10 13  1  0  0  0
 13 14  2  0  0  0
 14 15  1  0  0  0
 15 16  2  0  0  0
 16 17  1  0  0  0
 16 18  1  0  0  0
 18 19  1  0  0  0
 18 20  2  0  0  0
 25 26  1  0  0  0
 26 27  2  0  0  0
 38 34  1  0  0  0
 27 22  1  0  0  0
  7  1  1  0  0  0
 20 13  1  0  0  0
 30 31  1  0  0  0
  8  9  1  0  0  0
M  END
> <minimizedAffinity>
-8.92506

> <CNNscore>
0.0920148641

> <CNNaffinity>
6.2013769150

> <CNN_VS>
0.5706188679

> <CNNaffinity_variance>
0.9174337387

$$$$
[H]c1nc(Oc2c([H])c([H])c(C(=O)N([H])C([H])([H])C([H])([H])N3C([H])([H])C([H])([H])C([H])([H])C3([H])[H])c([H])c2[H])c(N([H])S(=O)(=O)c2c([H])c([H])c(Cl)c(Cl)c2[H])c([H])c1Cl


 38 41  0  0  0  0  0  0  0  0999 V2000
  -88.3270   30.6660   -3.1003 C   0  0  0  0  0  0  0  0  0  0  0  0
  -89.4982   30.3013   -3.6525 N   0  0  0  0  0  0  0  0  0  0  0  0
  -90.2829   31.1839   -4.2773 C   0  0  0  0  0  0  0  0  0  0  0  0
  -89.8830   32.4821   -4.3546 C   0  0  0  0  0  0  0  0  0  0  0  0
  -90.9211   33.6338   -5.1771 Cl  0  0  0  0  0  0  0  0  0  0  0  0
  -88.6650   32.8843   -3.7859 C   0  0  0  0  0  0  0  0  0  0  0  0
  -87.8730   31.9619   -3.1473 C   0  0  0  0  0  0  0  0  0  0  0  0
  -86.6211   32.2670   -2.5654 N   0  0  0  0  0  0  0  0  0  0  0  0
  -85.7439   32.3194   -3.1625 H   0  0  0  0  0  0  0  0  0  0  0  0
  -86.5109   32.5567   -0.8790 S   0  0  0  0  0  0  0  0  0  0  0  0
  -86.1235   34.0143   -0.6653 O   0  0  0  0  0  0  0  0  0  0  0  0
  -87.9014   32.3309   -0.2897 O   0  0  0  0  0  0  0  0  0  0  0  0
  -85.3924   31.5568   -0.0305 C   0  0  0  0  0  0  0  0  0  0  0  0
  -84.0589   31.9474    0.1334 C   0  0  0  0  0  0  0  0  0  0  0  0
  -83.2120   31.1183    0.8109 C   0  0  0  0  0  0  0  0  0  0  0  0
  -83.6547   29.9129    1.3292 C   0  0  0  0  0  0  0  0  0  0  0  0
  -82.5595   28.8639    2.1912 Cl  0  0  0  0  0  0  0  0  0  0  0  0
  -84.9774   29.5213    1.1686 C   0  0  0  0  0  0  0  0  0  0  0  0
  -85.4934   27.9955    1.8371 Cl  0  0  0  0  0  0  0  0  0  0  0  0
  -85.8407   30.3633    0.4799 C   0  0  0  0  0  0  0  0  0  0  0  0
  -87.5624   29.6826   -2.4638 O   0  0  0  0  0  0  0  0  0  0  0  0
  -89.3728   26.7519   -0.0686 C   0  0  0  0  0  0  0  0  0  0  0  0
  -88.6820   26.3979   -1.2373 C   0  0  0  0  0  0  0  0  0  0  0  0
  -88.0892   27.3724   -2.0203 C   0  0  0  0  0  0  0  0  0  0  0  0
  -88.1547   28.7038   -1.6855 C   0  0  0  0  0  0  0  0  0  0  0  0
  -88.8366   29.0243   -0.5377 C   0  0  0  0  0  0  0  0  0  0  0  0
  -89.4386   28.0688    0.2631 C   0  0  0  0  0  0  0  0  0  0  0  0
  -90.6860   26.0401    1.7678 O   0  0  0  0  0  0  0  0  0  0  0  0
  -89.9775   25.7108    0.7479 C   0  0  0  0  0  0  0  0  0  0  0  0
  -89.8242   24.3368    0.4738 N   0  0  0  0  0  0  0  0  0  0  0  0
  -89.2399   24.0931   -0.3634 H   0  0  0  0  0  0  0  0  0  0  0  0
  -90.3816   23.2477    1.2240 C   0  0  0  0  0  0  0  0  0  0  0  0
  -91.0655   22.2914    0.2860 C   0  0  0  0  0  0  0  0  0  0  0  0
  -92.2097   22.9159   -0.3126 N   0  0  0  0  0  0  0  0  0  0  0  0
  -93.1778   23.4331    0.5926 C   0  0  0  0  0  0  0  0  0  0  0  0
  -94.3795   22.5038    0.5511 C   0  0  0  0  0  0  0  0  0  0  0  0
  -94.2829   21.9111   -0.8257 C   0  0  0  0  0  0  0  0  0  0  0  0
  -92.8746   22.1385   -1.3095 C   0  0  0  0  0  0  0  0  0  0  0  0
 28 29  2  0  0  0
 29 30  1  0  0  0
 30 32  1  0  0  0
 32 33  1  0  0  0
 33 34  1  0  0  0
 34 35  1  0  0  0
 35 36  1  0  0  0
 36 37  1  0  0  0
 37 38  1  0  0  0
 29 22  1  0  0  0
 22 23  2  0  0  0
 23 24  1  0  0  0
 24 25  2  0  0  0
 25 21  1  0  0  0
 21  1  1  0  0  0
  1  2  2  0  0  0
  2  3  1  0  0  0
  3  4  2  0  0  0
  4  5  1  0  0  0
  4  6  1  0  0  0
  6  7  2  0  0  0
  7  8  1  0  0  0
  8 10  1  0  0  0
 10 11  2  0  0  0
 10 12  2  0  0  0
 10 13  1  0  0  0
 13 14  2  0  0  0
 14 15  1  0  0  0
 15 16  2  0  0  0
 16 17  1  0  0  0
 16 18  1  0  0  0
 18 19  1  0  0  0
 18 20  2  0  0  0
 25 26  1  0  0  0
 26 27  2  0  0  0
 38 34  1  0  0  0
 27 22  1  0  0  0
  7  1  1  0  0  0
 20 13  1  0  0  0
 30 31  1  0  0  0
  8  9  1  0  0  0
M  END
> <minimizedAffinity>
-7.94536

> <CNNscore>
0.0795895755

> <CNNaffinity>
6.5993285179

> <CNN_VS>
0.5252377391

> <CNNaffinity_variance>
0.4574783742

$$$$
[H]c1nc(Oc2c([H])c([H])c(C(=O)N([H])C([H])([H])C([H])([H])N3C([H])([H])C([H])([H])C([H])([H])C3([H])[H])c([H])c2[H])c(N([H])S(=O)(=O)c2c([H])c([H])c(Cl)c(Cl)c2[H])c([H])c1Cl


 38 41  0  0  0  0  0  0  0  0999 V2000
  -88.5334   30.9156   -3.7957 C   0  0  0  0  0  0  0  0  0  0  0  0
  -89.6763   30.9279   -4.5051 N   0  0  0  0  0  0  0  0  0  0  0  0
  -90.3522   32.0594   -4.7245 C   0  0  0  0  0  0  0  0  0  0  0  0
  -89.8683   33.2251   -4.2164 C   0  0  0  0  0  0  0  0  0  0  0  0
  -90.7638   34.7059   -4.5100 Cl  0  0  0  0  0  0  0  0  0  0  0  0
  -88.6778   33.2353   -3.4738 C   0  0  0  0  0  0  0  0  0  0  0  0
  -87.9983   32.0615   -3.2587 C   0  0  0  0  0  0  0  0  0  0  0  0
  -86.7811   31.9755   -2.5445 N   0  0  0  0  0  0  0  0  0  0  0  0
  -85.8663   31.7907   -3.0522 H   0  0  0  0  0  0  0  0  0  0  0  0
  -86.7747   32.1710   -0.8410 S   0  0  0  0  0  0  0  0  0  0  0  0
  -86.5848   33.6494   -0.5268 O   0  0  0  0  0  0  0  0  0  0  0  0
  -88.1470   31.7371   -0.3310 O   0  0  0  0  0  0  0  0  0  0  0  0
  -85.5719   31.2676    0.0004 C   0  0  0  0  0  0  0  0  0  0  0  0
  -84.2757   31.7695    0.1602 C   0  0  0  0  0  0  0  0  0  0  0  0
  -83.3587   31.0137    0.8322 C   0  0  0  0  0  0  0  0  0  0  0  0
  -83.6954   29.7738    1.3489 C   0  0  0  0  0  0  0  0  0  0  0  0
  -82.5117   28.8196    2.2038 Cl  0  0  0  0  0  0  0  0  0  0  0  0
  -84.9808   29.2719    1.1924 C   0  0  0  0  0  0  0  0  0  0  0  0
  -85.3628   27.7061    1.8587 Cl  0  0  0  0  0  0  0  0  0  0  0  0
  -85.9153   30.0392    0.5093 C   0  0  0  0  0  0  0  0  0  0  0  0
  -87.8846   29.6903   -3.6101 O   0  0  0  0  0  0  0  0  0  0  0  0
  -88.8305   27.1389   -0.4164 C   0  0  0  0  0  0  0  0  0  0  0  0
  -89.7845   28.0301   -0.9302 C   0  0  0  0  0  0  0  0  0  0  0  0
  -89.4619   28.8676   -1.9832 C   0  0  0  0  0  0  0  0  0  0  0  0
  -88.2125   28.8562   -2.5559 C   0  0  0  0  0  0  0  0  0  0  0  0
  -87.2968   27.9757   -2.0348 C   0  0  0  0  0  0  0  0  0  0  0  0
  -87.5941   27.1274   -0.9819 C   0  0  0  0  0  0  0  0  0  0  0  0
  -88.5317   26.3127    1.7817 O   0  0  0  0  0  0  0  0  0  0  0  0
  -89.1940   26.2573    0.6821 C   0  0  0  0  0  0  0  0  0  0  0  0
  -90.2526   25.3303    0.6020 N   0  0  0  0  0  0  0  0  0  0  0  0
  -90.7774   25.3028   -0.3066 H   0  0  0  0  0  0  0  0  0  0  0  0
  -90.6768   24.4253    1.6319 C   0  0  0  0  0  0  0  0  0  0  0  0
  -90.5219   23.0092    1.1494 C   0  0  0  0  0  0  0  0  0  0  0  0
  -91.0306   22.0925    2.1284 N   0  0  0  0  0  0  0  0  0  0  0  0
  -90.3951   22.1292    3.4008 C   0  0  0  0  0  0  0  0  0  0  0  0
  -89.5364   20.8806    3.5149 C   0  0  0  0  0  0  0  0  0  0  0  0
  -90.2401   19.9192    2.6001 C   0  0  0  0  0  0  0  0  0  0  0  0
  -91.1282   20.7345    1.6969 C   0  0  0  0  0  0  0  0  0  0  0  0
 28 29  2  0  0  0
 29 30  1  0  0  0
 30 32  1  0  0  0
 32 33  1  0  0  0
 33 34  1  0  0  0
 34 35  1  0  0  0
 35 36  1  0  0  0
 36 37  1  0  0  0
 37 38  1  0  0  0
 29 22  1  0  0  0
 22 23  2  0  0  0
 23 24  1  0  0  0
 24 25  2  0  0  0
 25 21  1  0  0  0
 21  1  1  0  0  0
  1  2  2  0  0  0
  2  3  1  0  0  0
  3  4  2  0  0  0
  4  5  1  0  0  0
  4  6  1  0  0  0
  6  7  2  0  0  0
  7  8  1  0  0  0
  8 10  1  0  0  0
 10 11  2  0  0  0
 10 12  2  0  0  0
 10 13  1  0  0  0
 13 14  2  0  0  0
 14 15  1  0  0  0
 15 16  2  0  0  0
 16 17  1  0  0  0
 16 18  1  0  0  0
 18 19  1  0  0  0
 18 20  2  0  0  0
 25 26  1  0  0  0
 26 27  2  0  0  0
 38 34  1  0  0  0
 27 22  1  0  0  0
  7  1  1  0  0  0
 20 13  1  0  0  0
 30 31  1  0  0  0
  8  9  1  0  0  0
M  END
> <minimizedAffinity>
-8.83250

> <CNNscore>
0.0754270181

> <CNNaffinity>
6.5473680496

> <CNN_VS>
0.4938484430

> <CNNaffinity_variance>
0.5288292170

$$$$
[H]c1c([H])c(N([H])c2nc(N([H])[H])nc(C([H])([H])Cl)n2)c([H])c([H])c1OC([H])([H])[H]


 21 22  0  0  0  0  0  0  0  0999 V2000
  -85.7624   32.8755   -0.6035 C   0  0  0  0  0  0  0  0  0  0  0  0
  -84.4398   33.0506   -0.5093 N   0  0  0  0  0  0  0  0  0  0  0  0
  -83.5735   32.2179    0.0712 C   0  0  0  0  0  0  0  0  0  0  0  0
  -82.1769   32.4733    0.1321 N   0  0  0  0  0  0  0  0  0  0  0  0
  -84.0674   31.0741    0.6266 N   0  0  0  0  0  0  0  0  0  0  0  0
  -85.3958   30.8320    0.5682 C   0  0  0  0  0  0  0  0  0  0  0  0
  -86.2066   31.7082   -0.0281 N   0  0  0  0  0  0  0  0  0  0  0  0
  -81.7427   33.1490   -0.5313 H   0  0  0  0  0  0  0  0  0  0  0  0
  -81.5855   31.9881    0.8366 H   0  0  0  0  0  0  0  0  0  0  0  0
  -86.6825   33.7502   -1.2149 N   0  0  0  0  0  0  0  0  0  0  0  0
  -86.8126   34.6774   -0.7222 H   0  0  0  0  0  0  0  0  0  0  0  0
  -89.0548   33.2655   -4.6292 C   0  0  0  0  0  0  0  0  0  0  0  0
  -87.9854   32.4238   -4.4546 C   0  0  0  0  0  0  0  0  0  0  0  0
  -87.1625   32.5372   -3.3255 C   0  0  0  0  0  0  0  0  0  0  0  0
  -87.4196   33.5002   -2.3746 C   0  0  0  0  0  0  0  0  0  0  0  0
  -88.5274   34.3528   -2.5801 C   0  0  0  0  0  0  0  0  0  0  0  0
  -89.3290   34.2328   -3.6916 C   0  0  0  0  0  0  0  0  0  0  0  0
  -91.2337   33.2022   -5.6340 C   0  0  0  0  0  0  0  0  0  0  0  0
  -89.8473   33.1351   -5.7440 O   0  0  0  0  0  0  0  0  0  0  0  0
  -85.9792   29.5916    1.1636 C   0  0  0  0  0  0  0  0  0  0  0  0
  -85.3680   29.3944    2.8212 Cl  0  0  0  0  0  0  0  0  0  0  0  0
 18 19  1  0  0  0
 19 12  1  0  0  0
 12 13  2  0  0  0
 13 14  1  0  0  0
 14 15  2  0  0  0
 15 10  1  0  0  0
 10  1  1  0  0  0
  1  2  2  0  0  0
  2  3  1  0  0  0
  3  4  1  0  0  0
  3  5  2  0  0  0
  5  6  1  0  0  0
  6 20  1  0  0  0
 20 21  1  0  0  0
  6  7  2  0  0  0
 15 16  1  0  0  0
 16 17  2  0  0  0
 17 12  1  0  0  0
  7  1  1  0  0  0
 10 11  1  0  0  0
  4  8  1  0  0  0
  4  9  1  0  0  0
M  END
> <minimizedAffinity>
-5.83361

> <CNNscore>
0.8453356028

> <CNNaffinity>
5.5422983170

> <CNN_VS>
4.6851019859

> <CNNaffinity_variance>
0.1178046912

$$$$
[H]c1c([H])c(N([H])c2nc(N([H])[H])nc(C([H])([H])Cl)n2)c([H])c([H])c1OC([H])([H])[H]


 21 22  0  0  0  0  0  0  0  0999 V2000
  -85.6052   31.1153    0.3893 C   0  0  0  0  0  0  0  0  0  0  0  0
  -84.4700   31.7991    0.2086 N   0  0  0  0  0  0  0  0  0  0  0  0
  -83.2833   31.5142    0.7484 C   0  0  0  0  0  0  0  0  0  0  0  0
  -82.1177   32.2908    0.5085 N   0  0  0  0  0  0  0  0  0  0  0  0
  -83.2027   30.4247    1.5651 N   0  0  0  0  0  0  0  0  0  0  0  0
  -84.3118   29.6866    1.7927 C   0  0  0  0  0  0  0  0  0  0  0  0
  -85.4678   30.0281    1.2202 N   0  0  0  0  0  0  0  0  0  0  0  0
  -82.0706   32.9136   -0.3252 H   0  0  0  0  0  0  0  0  0  0  0  0
  -81.3104   32.2401    1.1621 H   0  0  0  0  0  0  0  0  0  0  0  0
  -86.8611   31.4102   -0.1774 N   0  0  0  0  0  0  0  0  0  0  0  0
  -87.6920   31.0281    0.3544 H   0  0  0  0  0  0  0  0  0  0  0  0
  -87.7038   33.3247   -3.8030 C   0  0  0  0  0  0  0  0  0  0  0  0
  -87.1637   34.0684   -2.7842 C   0  0  0  0  0  0  0  0  0  0  0  0
  -86.8552   33.4761   -1.5518 C   0  0  0  0  0  0  0  0  0  0  0  0
  -87.0927   32.1344   -1.3490 C   0  0  0  0  0  0  0  0  0  0  0  0
  -87.6491   31.3931   -2.4155 C   0  0  0  0  0  0  0  0  0  0  0  0
  -87.9480   31.9841   -3.6213 C   0  0  0  0  0  0  0  0  0  0  0  0
  -87.8072   35.2968   -5.1674 C   0  0  0  0  0  0  0  0  0  0  0  0
  -87.9979   33.9274   -5.0022 O   0  0  0  0  0  0  0  0  0  0  0  0
  -84.2684   28.4852    2.6806 C   0  0  0  0  0  0  0  0  0  0  0  0
  -82.6507   27.7530    2.5961 Cl  0  0  0  0  0  0  0  0  0  0  0  0
 18 19  1  0  0  0
 19 12  1  0  0  0
 12 13  2  0  0  0
 13 14  1  0  0  0
 14 15  2  0  0  0
 15 10  1  0  0  0
 10  1  1  0  0  0
  1  2  2  0  0  0
  2  3  1  0  0  0
  3  4  1  0  0  0
  3  5  2  0  0  0
  5  6  1  0  0  0
  6 20  1  0  0  0
 20 21  1  0  0  0
  6  7  2  0  0  0
 15 16  1  0  0  0
 16 17  2  0  0  0
 17 12  1  0  0  0
  7  1  1  0  0  0
 10 11  1  0  0  0
  4  8  1  0  0  0
  4  9  1  0  0  0
M  END
> <minimizedAffinity>
-6.62800

> <CNNscore>
0.6476185322

> <CNNaffinity>
5.6524991989

> <CNN_VS>
3.6606631279

> <CNNaffinity_variance>
0.1950724423

$$$$
[H]c1c([H])c(N([H])c2nc(N([H])[H])nc(C([H])([H])Cl)n2)c([H])c([H])c1OC([H])([H])[H]


 21 22  0  0  0  0  0  0  0  0999 V2000
  -85.2811   29.1049    1.3015 C   0  0  0  0  0  0  0  0  0  0  0  0
  -84.5968   28.1873    1.9932 N   0  0  0  0  0  0  0  0  0  0  0  0
  -83.3065   28.2523    2.3276 C   0  0  0  0  0  0  0  0  0  0  0  0
  -82.6465   27.2338    3.0669 N   0  0  0  0  0  0  0  0  0  0  0  0
  -82.6036   29.3531    1.9341 N   0  0  0  0  0  0  0  0  0  0  0  0
  -83.2320   30.3213    1.2311 C   0  0  0  0  0  0  0  0  0  0  0  0
  -84.5257   30.1924    0.9302 N   0  0  0  0  0  0  0  0  0  0  0  0
  -83.2027   26.5603    3.6344 H   0  0  0  0  0  0  0  0  0  0  0  0
  -81.6096   27.1577    3.0440 H   0  0  0  0  0  0  0  0  0  0  0  0
  -86.6430   29.0428    0.9452 N   0  0  0  0  0  0  0  0  0  0  0  0
  -87.2756   28.6071    1.6727 H   0  0  0  0  0  0  0  0  0  0  0  0
  -88.2924   30.0800   -2.7594 C   0  0  0  0  0  0  0  0  0  0  0  0
  -88.3677   30.9902   -1.7355 C   0  0  0  0  0  0  0  0  0  0  0  0
  -87.8251   30.6974   -0.4766 C   0  0  0  0  0  0  0  0  0  0  0  0
  -87.2078   29.4864   -0.2527 C   0  0  0  0  0  0  0  0  0  0  0  0
  -87.1445   28.5686   -1.3251 C   0  0  0  0  0  0  0  0  0  0  0  0
  -87.6799   28.8659   -2.5569 C   0  0  0  0  0  0  0  0  0  0  0  0
  -88.1922   31.2960   -4.8264 C   0  0  0  0  0  0  0  0  0  0  0  0
  -88.8315   30.3895   -3.9848 O   0  0  0  0  0  0  0  0  0  0  0  0
  -82.5000   31.5438    0.7802 C   0  0  0  0  0  0  0  0  0  0  0  0
  -83.4985   32.4222   -0.3995 Cl  0  0  0  0  0  0  0  0  0  0  0  0
 18 19  1  0  0  0
 19 12  1  0  0  0
 12 13  2  0  0  0
 13 14  1  0  0  0
 14 15  2  0  0  0
 15 10  1  0  0  0
 10  1  1  0  0  0
  1  2  2  0  0  0
  2  3  1  0  0  0
  3  4  1  0  0  0
  3  5  2  0  0  0
  5  6  1  0  0  0
  6 20  1  0  0  0
 20 21  1  0  0  0
  6  7  2  0  0  0
 15 16  1  0  0  0
 16 17  2  0  0  0
 17 12  1  0  0  0
  7  1  1  0  0  0
 10 11  1  0  0  0
  4  8  1  0  0  0
  4  9  1  0  0  0
M  END
> <minimizedAffinity>
-6.68167

> <CNNscore>
0.6260945201

> <CNNaffinity>
5.6894559860

> <CNN_VS>
3.5621371269

> <CNNaffinity_variance>
0.3160018623

$$$$
[H]c1c([H])c(N([H])c2nc(N([H])[H])nc(C([H])([H])Cl)n2)c([H])c([H])c1OC([H])([H])[H]


 21 22  0  0  0  0  0  0  0  0999 V2000
  -86.0791   32.2388   -0.4098 C   0  0  0  0  0  0  0  0  0  0  0  0
  -84.8380   32.7369   -0.4293 N   0  0  0  0  0  0  0  0  0  0  0  0
  -83.7492   32.1615    0.0848 C   0  0  0  0  0  0  0  0  0  0  0  0
  -82.4592   32.7546    0.0250 N   0  0  0  0  0  0  0  0  0  0  0  0
  -83.8987   30.9491    0.6918 N   0  0  0  0  0  0  0  0  0  0  0  0
  -85.1259   30.3858    0.7482 C   0  0  0  0  0  0  0  0  0  0  0  0
  -86.1731   31.0164    0.2133 N   0  0  0  0  0  0  0  0  0  0  0  0
  -82.2600   33.4954   -0.6797 H   0  0  0  0  0  0  0  0  0  0  0  0
  -81.7122   32.4520    0.6822 H   0  0  0  0  0  0  0  0  0  0  0  0
  -87.2327   32.8407   -0.9505 N   0  0  0  0  0  0  0  0  0  0  0  0
  -87.3529   33.8657   -0.7174 H   0  0  0  0  0  0  0  0  0  0  0  0
  -89.9117   30.8892   -3.5069 C   0  0  0  0  0  0  0  0  0  0  0  0
  -90.3724   31.3234   -2.2896 C   0  0  0  0  0  0  0  0  0  0  0  0
  -89.5199   31.9891   -1.3980 C   0  0  0  0  0  0  0  0  0  0  0  0
  -88.2037   32.2154   -1.7359 C   0  0  0  0  0  0  0  0  0  0  0  0
  -87.7568   31.7578   -2.9958 C   0  0  0  0  0  0  0  0  0  0  0  0
  -88.6018   31.1056   -3.8636 C   0  0  0  0  0  0  0  0  0  0  0  0
  -91.9422   30.8533   -4.7865 C   0  0  0  0  0  0  0  0  0  0  0  0
  -90.7661   30.2390   -4.3643 O   0  0  0  0  0  0  0  0  0  0  0  0
  -85.3346   29.0590    1.4037 C   0  0  0  0  0  0  0  0  0  0  0  0
  -84.0393   28.7814    2.5891 Cl  0  0  0  0  0  0  0  0  0  0  0  0
 18 19  1  0  0  0
 19 12  1  0  0  0
 12 13  2  0  0  0
 13 14  1  0  0  0
 14 15  2  0  0  0
 15 10  1  0  0  0
 10  1  1  0  0  0
  1  2  2  0  0  0
  2  3  1  0  0  0
  3  4  1  0  0  0
  3  5  2  0  0  0
  5  6  1  0  0  0
  6 20  1  0  0  0
 20 21  1  0  0  0
  6  7  2  0  0  0
 15 16  1  0  0  0
 16 17  2  0  0  0
 17 12  1  0  0  0
  7  1  1  0  0  0
 10 11  1  0  0  0
  4  8  1  0  0  0
  4  9  1  0  0  0
M  END
> <minimizedAffinity>
-5.97244

> <CNNscore>
0.6100298166

> <CNNaffinity>
5.6532444954

> <CNN_VS>
3.4486477375

> <CNNaffinity_variance>
0.2309750319

$$$$
[H]c1c([H])c(N([H])c2nc(N([H])[H])nc(C([H])([H])Cl)n2)c([H])c([H])c1OC([H])([H])[H]


 21 22  0  0  0  0  0  0  0  0999 V2000
  -84.8900   29.7532    1.9630 C   0  0  0  0  0  0  0  0  0  0  0  0
  -83.7680   29.1343    2.3463 N   0  0  0  0  0  0  0  0  0  0  0  0
  -83.6119   27.8203    2.5191 C   0  0  0  0  0  0  0  0  0  0  0  0
  -82.3840   27.2344    2.9296 N   0  0  0  0  0  0  0  0  0  0  0  0
  -84.6897   27.0171    2.2868 N   0  0  0  0  0  0  0  0  0  0  0  0
  -85.8570   27.5752    1.8964 C   0  0  0  0  0  0  0  0  0  0  0  0
  -85.9441   28.8979    1.7427 N   0  0  0  0  0  0  0  0  0  0  0  0
  -81.4923   27.7599    2.8117 H   0  0  0  0  0  0  0  0  0  0  0  0
  -82.3715   26.2823    3.3477 H   0  0  0  0  0  0  0  0  0  0  0  0
  -85.0618   31.1395    1.7786 N   0  0  0  0  0  0  0  0  0  0  0  0
  -84.9738   31.7215    2.6578 H   0  0  0  0  0  0  0  0  0  0  0  0
  -86.1830   32.9648   -1.8174 C   0  0  0  0  0  0  0  0  0  0  0  0
  -84.9596   33.2790   -1.2816 C   0  0  0  0  0  0  0  0  0  0  0  0
  -84.5310   32.6913   -0.0834 C   0  0  0  0  0  0  0  0  0  0  0  0
  -85.3379   31.7878    0.5727 C   0  0  0  0  0  0  0  0  0  0  0  0
  -86.5921   31.4828   -0.0021 C   0  0  0  0  0  0  0  0  0  0  0  0
  -87.0031   32.0651   -1.1788 C   0  0  0  0  0  0  0  0  0  0  0  0
  -87.2686   34.7646   -2.9765 C   0  0  0  0  0  0  0  0  0  0  0  0
  -86.5814   33.5537   -2.9932 O   0  0  0  0  0  0  0  0  0  0  0  0
  -87.0625   26.7326    1.6311 C   0  0  0  0  0  0  0  0  0  0  0  0
  -88.2005   27.6428    0.6129 Cl  0  0  0  0  0  0  0  0  0  0  0  0
 18 19  1  0  0  0
 19 12  1  0  0  0
 12 13  2  0  0  0
 13 14  1  0  0  0
 14 15  2  0  0  0
 15 10  1  0  0  0
 10  1  1  0  0  0
  1  2  2  0  0  0
  2  3  1  0  0  0
  3  4  1  0  0  0
  3  5  2  0  0  0
  5  6  1  0  0  0
  6 20  1  0  0  0
 20 21  1  0  0  0
  6  7  2  0  0  0
 15 16  1  0  0  0
 16 17  2  0  0  0
 17 12  1  0  0  0
  7  1  1  0  0  0
 10 11  1  0  0  0
  4  8  1  0  0  0
  4  9  1  0  0  0
M  END
> <minimizedAffinity>
-6.45549

> <CNNscore>
0.5564014316

> <CNNaffinity>
5.7992520332

> <CNN_VS>
3.2267122269

> <CNNaffinity_variance>
0.2225712985

$$$$
[H]c1c([H])c(N([H])c2nc(N([H])[H])nc(C([H])([H])Cl)n2)c([H])c([H])c1OC([H])([H])[H]


 21 22  0  0  0  0  0  0  0  0999 V2000
  -85.2327   30.3791    0.2748 C   0  0  0  0  0  0  0  0  0  0  0  0
  -83.9598   30.7536    0.4432 N   0  0  0  0  0  0  0  0  0  0  0  0
  -83.4476   31.9541    0.1649 C   0  0  0  0  0  0  0  0  0  0  0  0
  -82.0796   32.2785    0.3716 N   0  0  0  0  0  0  0  0  0  0  0  0
  -84.2890   32.9014   -0.3403 N   0  0  0  0  0  0  0  0  0  0  0  0
  -85.5899   32.5920   -0.5366 C   0  0  0  0  0  0  0  0  0  0  0  0
  -86.0364   31.3709   -0.2364 N   0  0  0  0  0  0  0  0  0  0  0  0
  -81.5033   31.7080    1.0255 H   0  0  0  0  0  0  0  0  0  0  0  0
  -81.6507   33.0838   -0.1274 H   0  0  0  0  0  0  0  0  0  0  0  0
  -85.7800   29.1139    0.5665 N   0  0  0  0  0  0  0  0  0  0  0  0
  -85.2819   28.5769    1.3300 H   0  0  0  0  0  0  0  0  0  0  0  0
  -89.2448   27.3801   -1.0176 C   0  0  0  0  0  0  0  0  0  0  0  0
  -88.2093   27.6632   -1.8721 C   0  0  0  0  0  0  0  0  0  0  0  0
  -87.0233   28.2371   -1.3936 C   0  0  0  0  0  0  0  0  0  0  0  0
  -86.8843   28.5250   -0.0536 C   0  0  0  0  0  0  0  0  0  0  0  0
  -87.9664   28.2226    0.8031 C   0  0  0  0  0  0  0  0  0  0  0  0
  -89.1260   27.6590    0.3233 C   0  0  0  0  0  0  0  0  0  0  0  0
  -90.5326   26.5676   -2.8731 C   0  0  0  0  0  0  0  0  0  0  0  0
  -90.3976   26.8175   -1.5099 O   0  0  0  0  0  0  0  0  0  0  0  0
  -86.5462   33.5996   -1.0880 C   0  0  0  0  0  0  0  0  0  0  0  0
  -88.1986   32.9509   -0.9942 Cl  0  0  0  0  0  0  0  0  0  0  0  0
 18 19  1  0  0  0
 19 12  1  0  0  0
 12 13  2  0  0  0
 13 14  1  0  0  0
 14 15  2  0  0  0
 15 10  1  0  0  0
 10  1  1  0  0  0
  1  2  2  0  0  0
  2  3  1  0  0  0
  3  4  1  0  0  0
  3  5  2  0  0  0
  5  6  1  0  0  0
  6 20  1  0  0  0
 20 21  1  0  0  0
  6  7  2  0  0  0
 15 16  1  0  0  0
 16 17  2  0  0  0
 17 12  1  0  0  0
  7  1  1  0  0  0
 10 11  1  0  0  0
  4  8  1  0  0  0
  4  9  1  0  0  0
M  END
> <minimizedAffinity>
-5.79294

> <CNNscore>
0.5055314302

> <CNNaffinity>
5.5706253052

> <CNN_VS>
2.8161261082

> <CNNaffinity_variance>
0.2094655484

$$$$
[H]c1c([H])c(N([H])c2nc(N([H])[H])nc(C([H])([H])Cl)n2)c([H])c([H])c1OC([H])([H])[H]


 21 22  0  0  0  0  0  0  0  0999 V2000
  -85.8380   30.9758    0.4187 C   0  0  0  0  0  0  0  0  0  0  0  0
  -84.7582   31.7222    0.1625 N   0  0  0  0  0  0  0  0  0  0  0  0
  -83.5325   31.5306    0.6541 C   0  0  0  0  0  0  0  0  0  0  0  0
  -82.4308   32.3694    0.3345 N   0  0  0  0  0  0  0  0  0  0  0  0
  -83.3455   30.4771    1.5002 N   0  0  0  0  0  0  0  0  0  0  0  0
  -84.3938   29.6799    1.8036 C   0  0  0  0  0  0  0  0  0  0  0  0
  -85.5940   29.9287    1.2762 N   0  0  0  0  0  0  0  0  0  0  0  0
  -82.4615   32.9647   -0.5198 H   0  0  0  0  0  0  0  0  0  0  0  0
  -81.5930   32.3917    0.9502 H   0  0  0  0  0  0  0  0  0  0  0  0
  -87.1346   31.1722   -0.0967 N   0  0  0  0  0  0  0  0  0  0  0  0
  -87.9201   30.8530    0.5362 H   0  0  0  0  0  0  0  0  0  0  0  0
  -88.0604   33.1218   -3.6832 C   0  0  0  0  0  0  0  0  0  0  0  0
  -87.9414   31.7550   -3.6970 C   0  0  0  0  0  0  0  0  0  0  0  0
  -87.6402   31.0510   -2.5229 C   0  0  0  0  0  0  0  0  0  0  0  0
  -87.4589   31.7275   -1.3366 C   0  0  0  0  0  0  0  0  0  0  0  0
  -87.5877   33.1345   -1.3517 C   0  0  0  0  0  0  0  0  0  0  0  0
  -87.8839   33.8157   -2.5096 C   0  0  0  0  0  0  0  0  0  0  0  0
  -87.8333   35.0587   -5.0825 C   0  0  0  0  0  0  0  0  0  0  0  0
  -88.3563   33.7900   -4.8467 O   0  0  0  0  0  0  0  0  0  0  0  0
  -84.2335   28.5150    2.7260 C   0  0  0  0  0  0  0  0  0  0  0  0
  -82.5902   27.8577    2.5590 Cl  0  0  0  0  0  0  0  0  0  0  0  0
 18 19  1  0  0  0
 19 12  1  0  0  0
 12 13  2  0  0  0
 13 14  1  0  0  0
 14 15  2  0  0  0
 15 10  1  0  0  0
 10  1  1  0  0  0
  1  2  2  0  0  0
  2  3  1  0  0  0
  3  4  1  0  0  0
  3  5  2  0  0  0
  5  6  1  0  0  0
  6 20  1  0  0  0
 20 21  1  0  0  0
  6  7  2  0  0  0
 15 16  1  0  0  0
 16 17  2  0  0  0
 17 12  1  0  0  0
  7  1  1  0  0  0
 10 11  1  0  0  0
  4  8  1  0  0  0
  4  9  1  0  0  0
M  END
> <minimizedAffinity>
-6.49111

> <CNNscore>
0.5026627779

> <CNNaffinity>
5.4688405991

> <CNN_VS>
2.7489826679

> <CNNaffinity_variance>
0.2300462276

$$$$
[H]c1c([H])c(N([H])c2nc(N([H])[H])nc(C([H])([H])Cl)n2)c([H])c([H])c1OC([H])([H])[H]


 21 22  0  0  0  0  0  0  0  0999 V2000
  -85.4434   30.7031    0.4530 C   0  0  0  0  0  0  0  0  0  0  0  0
  -84.7683   31.7969    0.0832 N   0  0  0  0  0  0  0  0  0  0  0  0
  -83.4770   32.0421    0.3137 C   0  0  0  0  0  0  0  0  0  0  0  0
  -82.8274   33.2322   -0.1121 N   0  0  0  0  0  0  0  0  0  0  0  0
  -82.7624   31.0973    0.9898 N   0  0  0  0  0  0  0  0  0  0  0  0
  -83.3810   29.9657    1.3943 C   0  0  0  0  0  0  0  0  0  0  0  0
  -84.6764   29.7843    1.1303 N   0  0  0  0  0  0  0  0  0  0  0  0
  -83.2429   33.8065   -0.8754 H   0  0  0  0  0  0  0  0  0  0  0  0
  -81.9381   33.5328    0.3354 H   0  0  0  0  0  0  0  0  0  0  0  0
  -86.8062   30.4378    0.2130 N   0  0  0  0  0  0  0  0  0  0  0  0
  -87.2388   29.7115    0.8492 H   0  0  0  0  0  0  0  0  0  0  0  0
  -89.1779   31.9376   -2.8929 C   0  0  0  0  0  0  0  0  0  0  0  0
  -89.0622   32.6804   -1.7451 C   0  0  0  0  0  0  0  0  0  0  0  0
  -88.2749   32.2288   -0.6769 C   0  0  0  0  0  0  0  0  0  0  0  0
  -87.6058   31.0281   -0.7683 C   0  0  0  0  0  0  0  0  0  0  0  0
  -87.7427   30.2845   -1.9620 C   0  0  0  0  0  0  0  0  0  0  0  0
  -88.5177   30.7369   -3.0046 C   0  0  0  0  0  0  0  0  0  0  0  0
  -89.3664   33.0008   -5.0366 C   0  0  0  0  0  0  0  0  0  0  0  0
  -89.9554   32.4009   -3.9267 O   0  0  0  0  0  0  0  0  0  0  0  0
  -82.6360   28.9047    2.1378 C   0  0  0  0  0  0  0  0  0  0  0  0
  -83.7786   27.6512    2.6705 Cl  0  0  0  0  0  0  0  0  0  0  0  0
 18 19  1  0  0  0
 19 12  1  0  0  0
 12 13  2  0  0  0
 13 14  1  0  0  0
 14 15  2  0  0  0
 15 10  1  0  0  0
 10  1  1  0  0  0
  1  2  2  0  0  0
  2  3  1  0  0  0
  3  4  1  0  0  0
  3  5  2  0  0  0
  5  6  1  0  0  0
  6 20  1  0  0  0
 20 21  1  0  0  0
  6  7  2  0  0  0
 15 16  1  0  0  0
 16 17  2  0  0  0
 17 12  1  0  0  0
  7  1  1  0  0  0
 10 11  1  0  0  0
  4  8  1  0  0  0
  4  9  1  0  0  0
M  END
> <minimizedAffinity>
-6.41735

> <CNNscore>
0.4201538265

> <CNNaffinity>
5.6156172752

> <CNN_VS>
2.3594231606

> <CNNaffinity_variance>
0.2855229080

$$$$
[H]c1c([H])c(N([H])c2nc(N([H])[H])nc(C([H])([H])Cl)n2)c([H])c([H])c1OC([H])([H])[H]


 21 22  0  0  0  0  0  0  0  0999 V2000
  -86.5020   31.4614   -0.3694 C   0  0  0  0  0  0  0  0  0  0  0  0
  -86.7857   32.4165   -1.2616 N   0  0  0  0  0  0  0  0  0  0  0  0
  -85.9470   33.3546   -1.7061 C   0  0  0  0  0  0  0  0  0  0  0  0
  -86.3227   34.3399   -2.6587 N   0  0  0  0  0  0  0  0  0  0  0  0
  -84.6749   33.3534   -1.2137 N   0  0  0  0  0  0  0  0  0  0  0  0
  -84.3184   32.4160   -0.3078 C   0  0  0  0  0  0  0  0  0  0  0  0
  -85.2080   31.5061    0.0940 N   0  0  0  0  0  0  0  0  0  0  0  0
  -87.1525   34.1832   -3.2687 H   0  0  0  0  0  0  0  0  0  0  0  0
  -85.7725   35.2176   -2.7498 H   0  0  0  0  0  0  0  0  0  0  0  0
  -87.3823   30.4682    0.1041 N   0  0  0  0  0  0  0  0  0  0  0  0
  -87.4418   30.3894    1.1575 H   0  0  0  0  0  0  0  0  0  0  0  0
  -89.4253   27.8066   -2.3984 C   0  0  0  0  0  0  0  0  0  0  0  0
  -90.0862   28.3119   -1.3073 C   0  0  0  0  0  0  0  0  0  0  0  0
  -89.4520   29.2126   -0.4405 C   0  0  0  0  0  0  0  0  0  0  0  0
  -88.1515   29.6017   -0.6757 C   0  0  0  0  0  0  0  0  0  0  0  0
  -87.4957   29.0658   -1.8067 C   0  0  0  0  0  0  0  0  0  0  0  0
  -88.1274   28.1827   -2.6513 C   0  0  0  0  0  0  0  0  0  0  0  0
  -91.0331   26.0560   -2.7324 C   0  0  0  0  0  0  0  0  0  0  0  0
  -90.0678   26.9251   -3.2339 O   0  0  0  0  0  0  0  0  0  0  0  0
  -82.9354   32.3782    0.2575 C   0  0  0  0  0  0  0  0  0  0  0  0
  -82.7303   30.8873    1.2038 Cl  0  0  0  0  0  0  0  0  0  0  0  0
 18 19  1  0  0  0
 19 12  1  0  0  0
 12 13  2  0  0  0
 13 14  1  0  0  0
 14 15  2  0  0  0
 15 10  1  0  0  0
 10  1  1  0  0  0
  1  2  2  0  0  0
  2  3  1  0  0  0
  3  4  1  0  0  0
  3  5  2  0  0  0
  5  6  1  0  0  0
  6 20  1  0  0  0
 20 21  1  0  0  0
  6  7  2  0  0  0
 15 16  1  0  0  0
 16 17  2  0  0  0
 17 12  1  0  0  0
  7  1  1  0  0  0
 10 11  1  0  0  0
  4  8  1  0  0  0
  4  9  1  0  0  0
M  END
> <minimizedAffinity>
-5.97866

> <CNNscore>
0.3950179517

> <CNNaffinity>
5.4587235451

> <CNN_VS>
2.1562938690

> <CNNaffinity_variance>
0.2745213807

$$$$
[H]c1nc2sc3c(=O)n(C4([H])C([H])([H])C([H])([H])C([H])([H])C([H])([H])C4([H])[H])c([H])nc3c2c(N(C([H])([H])[H])C([H])([H])[H])c1[H]


 23 26  0  0  0  0  0  0  0  0999 V2000
  -85.5604   28.2052    1.4575 C   0  0  0  0  0  0  0  0  0  0  0  0
  -84.7512   27.3956    2.2289 C   0  0  0  0  0  0  0  0  0  0  0  0
  -83.4966   27.7375    2.6779 C   0  0  0  0  0  0  0  0  0  0  0  0
  -83.0739   28.9591    2.3115 N   0  0  0  0  0  0  0  0  0  0  0  0
  -83.8363   29.8037    1.5455 C   0  0  0  0  0  0  0  0  0  0  0  0
  -83.5776   31.3717    0.9239 S   0  0  0  0  0  0  0  0  0  0  0  0
  -85.0522   31.5885    0.0986 C   0  0  0  0  0  0  0  0  0  0  0  0
  -85.6185   32.6181   -0.6780 C   0  0  0  0  0  0  0  0  0  0  0  0
  -84.9038   33.6301   -0.8101 O   0  0  0  0  0  0  0  0  0  0  0  0
  -86.8371   32.4947   -1.2237 N   0  0  0  0  0  0  0  0  0  0  0  0
  -87.4750   31.3390   -0.9843 C   0  0  0  0  0  0  0  0  0  0  0  0
  -86.9566   30.3581   -0.2545 N   0  0  0  0  0  0  0  0  0  0  0  0
  -85.7177   30.4181    0.3323 C   0  0  0  0  0  0  0  0  0  0  0  0
  -85.0863   29.4849    1.0874 C   0  0  0  0  0  0  0  0  0  0  0  0
  -87.3813   33.5708   -2.0118 C   0  0  0  0  0  0  0  0  0  0  0  0
  -86.6441   33.7610   -3.3141 C   0  0  0  0  0  0  0  0  0  0  0  0
  -87.2068   34.9784   -3.9885 C   0  0  0  0  0  0  0  0  0  0  0  0
  -88.3876   35.5710   -3.3083 C   0  0  0  0  0  0  0  0  0  0  0  0
  -89.4213   34.5867   -2.8617 C   0  0  0  0  0  0  0  0  0  0  0  0
  -88.8332   33.2705   -2.4086 C   0  0  0  0  0  0  0  0  0  0  0  0
  -87.1826   27.0794   -0.1473 C   0  0  0  0  0  0  0  0  0  0  0  0
  -86.8411   27.7112    1.1092 N   0  0  0  0  0  0  0  0  0  0  0  0
  -87.8951   27.8517    2.0959 C   0  0  0  0  0  0  0  0  0  0  0  0
 21 22  1  0  0  0
 22 23  1  0  0  0
 22  1  1  0  0  0
  1  2  2  0  0  0
  2  3  1  0  0  0
  3  4  2  0  0  0
  4  5  1  0  0  0
  5  6  1  0  0  0
  6  7  1  0  0  0
  7  8  1  0  0  0
  8  9  2  0  0  0
  8 10  1  0  0  0
 10 15  1  0  0  0
 15 16  1  0  0  0
 16 17  1  0  0  0
 17 18  1  0  0  0
 18 19  1  0  0  0
 19 20  1  0  0  0
 10 11  1  0  0  0
 11 12  2  0  0  0
 12 13  1  0  0  0
 13 14  1  0  0  0
 14  1  1  0  0  0
 14  5  2  0  0  0
 13  7  2  0  0  0
 20 15  1  0  0  0
M  END
> <minimizedAffinity>
-8.18149

> <CNNscore>
0.5986292958

> <CNNaffinity>
6.6114664078

> <CNN_VS>
3.9578175545

> <CNNaffinity_variance>
0.0528186858

$$$$
[H]c1nc2sc3c(=O)n(C4([H])C([H])([H])C([H])([H])C([H])([H])C([H])([H])C4([H])[H])c([H])nc3c2c(N(C([H])([H])[H])C([H])([H])[H])c1[H]


 23 26  0  0  0  0  0  0  0  0999 V2000
  -84.6439   30.6804    1.1058 C   0  0  0  0  0  0  0  0  0  0  0  0
  -83.3687   31.1099    1.4133 C   0  0  0  0  0  0  0  0  0  0  0  0
  -82.7543   32.2086    0.8584 C   0  0  0  0  0  0  0  0  0  0  0  0
  -83.4915   32.8786   -0.0434 N   0  0  0  0  0  0  0  0  0  0  0  0
  -84.7630   32.4954   -0.3866 C   0  0  0  0  0  0  0  0  0  0  0  0
  -85.9170   33.1187   -1.4783 S   0  0  0  0  0  0  0  0  0  0  0  0
  -87.1687   31.9896   -1.2316 C   0  0  0  0  0  0  0  0  0  0  0  0
  -88.4605   31.8012   -1.7605 C   0  0  0  0  0  0  0  0  0  0  0  0
  -88.8090   32.6448   -2.6085 O   0  0  0  0  0  0  0  0  0  0  0  0
  -89.2378   30.7827   -1.3650 N   0  0  0  0  0  0  0  0  0  0  0  0
  -88.7105   29.9636   -0.4425 C   0  0  0  0  0  0  0  0  0  0  0  0
  -87.4951   30.1262    0.0671 N   0  0  0  0  0  0  0  0  0  0  0  0
  -86.6487   31.1448   -0.2917 C   0  0  0  0  0  0  0  0  0  0  0  0
  -85.3938   31.4063    0.1518 C   0  0  0  0  0  0  0  0  0  0  0  0
  -90.5534   30.6244   -1.9301 C   0  0  0  0  0  0  0  0  0  0  0  0
  -90.5127   30.3074   -3.4044 C   0  0  0  0  0  0  0  0  0  0  0  0
  -91.9255   30.2918   -3.9114 C   0  0  0  0  0  0  0  0  0  0  0  0
  -92.9620   30.4380   -2.8566 C   0  0  0  0  0  0  0  0  0  0  0  0
  -92.7422   29.6061   -1.6333 C   0  0  0  0  0  0  0  0  0  0  0  0
  -91.2822   29.4396   -1.2813 C   0  0  0  0  0  0  0  0  0  0  0  0
  -85.3203   28.2303    1.2245 C   0  0  0  0  0  0  0  0  0  0  0  0
  -85.1385   29.5473    1.7964 N   0  0  0  0  0  0  0  0  0  0  0  0
  -85.4909   29.7252    3.1923 C   0  0  0  0  0  0  0  0  0  0  0  0
 21 22  1  0  0  0
 22 23  1  0  0  0
 22  1  1  0  0  0
  1  2  2  0  0  0
  2  3  1  0  0  0
  3  4  2  0  0  0
  4  5  1  0  0  0
  5  6  1  0  0  0
  6  7  1  0  0  0
  7  8  1  0  0  0
  8  9  2  0  0  0
  8 10  1  0  0  0
 10 15  1  0  0  0
 15 16  1  0  0  0
 16 17  1  0  0  0
 17 18  1  0  0  0
 18 19  1  0  0  0
 19 20  1  0  0  0
 10 11  1  0  0  0
 11 12  2  0  0  0
 12 13  1  0  0  0
 13 14  1  0  0  0
 14  1  1  0  0  0
 14  5  2  0  0  0
 13  7  2  0  0  0
 20 15  1  0  0  0
M  END
> <minimizedAffinity>
-6.79570

> <CNNscore>
0.5750669241

> <CNNaffinity>
6.4868841171

> <CNN_VS>
3.7303924561

> <CNNaffinity_variance>
0.1024728641

$$$$
[H]c1nc2sc3c(=O)n(C4([H])C([H])([H])C([H])([H])C([H])([H])C([H])([H])C4([H])[H])c([H])nc3c2c(N(C([H])([H])[H])C([H])([H])[H])c1[H]


 23 26  0  0  0  0  0  0  0  0999 V2000
  -87.8018   28.2203    0.0525 C   0  0  0  0  0  0  0  0  0  0  0  0
  -87.3412   27.1729    0.8246 C   0  0  0  0  0  0  0  0  0  0  0  0
  -86.2134   27.2130    1.6114 C   0  0  0  0  0  0  0  0  0  0  0  0
  -85.5468   28.3794    1.5921 N   0  0  0  0  0  0  0  0  0  0  0  0
  -85.9592   29.4517    0.8428 C   0  0  0  0  0  0  0  0  0  0  0  0
  -85.3351   31.0223    0.6073 S   0  0  0  0  0  0  0  0  0  0  0  0
  -86.4982   31.6210   -0.4841 C   0  0  0  0  0  0  0  0  0  0  0  0
  -86.6953   32.8395   -1.1626 C   0  0  0  0  0  0  0  0  0  0  0  0
  -85.8397   33.7147   -0.9297 O   0  0  0  0  0  0  0  0  0  0  0  0
  -87.7335   33.0198   -1.9918 N   0  0  0  0  0  0  0  0  0  0  0  0
  -88.5635   31.9750   -2.1315 C   0  0  0  0  0  0  0  0  0  0  0  0
  -88.3933   30.8195   -1.4998 N   0  0  0  0  0  0  0  0  0  0  0  0
  -87.3551   30.5678   -0.6386 C   0  0  0  0  0  0  0  0  0  0  0  0
  -87.0770   29.4345    0.0529 C   0  0  0  0  0  0  0  0  0  0  0  0
  -87.9001   34.2813   -2.6672 C   0  0  0  0  0  0  0  0  0  0  0  0
  -87.0650   34.3787   -3.9198 C   0  0  0  0  0  0  0  0  0  0  0  0
  -87.2155   35.7685   -4.4668 C   0  0  0  0  0  0  0  0  0  0  0  0
  -88.2145   36.6076   -3.7553 C   0  0  0  0  0  0  0  0  0  0  0  0
  -89.5108   35.9269   -3.4503 C   0  0  0  0  0  0  0  0  0  0  0  0
  -89.3516   34.4579   -3.1336 C   0  0  0  0  0  0  0  0  0  0  0  0
  -90.3339   28.3044   -0.1834 C   0  0  0  0  0  0  0  0  0  0  0  0
  -89.0015   28.0220   -0.6731 N   0  0  0  0  0  0  0  0  0  0  0  0
  -88.8813   27.4921   -2.0181 C   0  0  0  0  0  0  0  0  0  0  0  0
 21 22  1  0  0  0
 22 23  1  0  0  0
 22  1  1  0  0  0
  1  2  2  0  0  0
  2  3  1  0  0  0
  3  4  2  0  0  0
  4  5  1  0  0  0
  5  6  1  0  0  0
  6  7  1  0  0  0
  7  8  1  0  0  0
  8  9  2  0  0  0
  8 10  1  0  0  0
 10 15  1  0  0  0
 15 16  1  0  0  0
 16 17  1  0  0  0
 17 18  1  0  0  0
 18 19  1  0  0  0
 19 20  1  0  0  0
 10 11  1  0  0  0
 11 12  2  0  0  0
 12 13  1  0  0  0
 13 14  1  0  0  0
 14  1  1  0  0  0
 14  5  2  0  0  0
 13  7  2  0  0  0
 20 15  1  0  0  0
M  END
> <minimizedAffinity>
-7.18453

> <CNNscore>
0.3661135137

> <CNNaffinity>
6.2664456367

> <CNN_VS>
2.2942304611

> <CNNaffinity_variance>
0.3953003883

$$$$
[H]c1nc2sc3c(=O)n(C4([H])C([H])([H])C([H])([H])C([H])([H])C([H])([H])C4([H])[H])c([H])nc3c2c(N(C([H])([H])[H])C([H])([H])[H])c1[H]


 23 26  0  0  0  0  0  0  0  0999 V2000
  -86.8527   31.5180   -0.5580 C   0  0  0  0  0  0  0  0  0  0  0  0
  -85.9139   32.5072   -0.7715 C   0  0  0  0  0  0  0  0  0  0  0  0
  -84.6296   32.4913   -0.2789 C   0  0  0  0  0  0  0  0  0  0  0  0
  -84.3154   31.4125    0.4578 N   0  0  0  0  0  0  0  0  0  0  0  0
  -85.2093   30.4011    0.7019 C   0  0  0  0  0  0  0  0  0  0  0  0
  -85.1136   28.9449    1.5862 S   0  0  0  0  0  0  0  0  0  0  0  0
  -86.6947   28.3632    1.3325 C   0  0  0  0  0  0  0  0  0  0  0  0
  -87.4143   27.2216    1.7362 C   0  0  0  0  0  0  0  0  0  0  0  0
  -86.7738   26.4196    2.4425 O   0  0  0  0  0  0  0  0  0  0  0  0
  -88.6918   27.0345    1.3745 N   0  0  0  0  0  0  0  0  0  0  0  0
  -89.2342   27.9953    0.6111 C   0  0  0  0  0  0  0  0  0  0  0  0
  -88.5709   29.0775    0.2212 N   0  0  0  0  0  0  0  0  0  0  0  0
  -87.2641   29.3313    0.5541 C   0  0  0  0  0  0  0  0  0  0  0  0
  -86.4915   30.3958    0.2227 C   0  0  0  0  0  0  0  0  0  0  0  0
  -89.3933   25.8533    1.8080 C   0  0  0  0  0  0  0  0  0  0  0  0
  -90.1937   26.0875    3.0651 C   0  0  0  0  0  0  0  0  0  0  0  0
  -90.7732   24.7709    3.4942 C   0  0  0  0  0  0  0  0  0  0  0  0
  -90.5464   23.6554    2.5389 C   0  0  0  0  0  0  0  0  0  0  0  0
  -90.7912   23.9922    1.1024 C   0  0  0  0  0  0  0  0  0  0  0  0
  -90.4170   25.4137    0.7523 C   0  0  0  0  0  0  0  0  0  0  0  0
  -89.2558   32.3541   -0.5798 C   0  0  0  0  0  0  0  0  0  0  0  0
  -88.1210   31.6751   -1.1679 N   0  0  0  0  0  0  0  0  0  0  0  0
  -88.2934   31.1073   -2.4917 C   0  0  0  0  0  0  0  0  0  0  0  0
 21 22  1  0  0  0
 22 23  1  0  0  0
 22  1  1  0  0  0
  1  2  2  0  0  0
  2  3  1  0  0  0
  3  4  2  0  0  0
  4  5  1  0  0  0
  5  6  1  0  0  0
  6  7  1  0  0  0
  7  8  1  0  0  0
  8  9  2  0  0  0
  8 10  1  0  0  0
 10 15  1  0  0  0
 15 16  1  0  0  0
 16 17  1  0  0  0
 17 18  1  0  0  0
 18 19  1  0  0  0
 19 20  1  0  0  0
 10 11  1  0  0  0
 11 12  2  0  0  0
 12 13  1  0  0  0
 13 14  1  0  0  0
 14  1  1  0  0  0
 14  5  2  0  0  0
 13  7  2  0  0  0
 20 15  1  0  0  0
M  END
> <minimizedAffinity>
-7.20255

> <CNNscore>
0.3458459079

> <CNNaffinity>
6.3222060204

> <CNN_VS>
2.1865091324

> <CNNaffinity_variance>
0.2934858799

$$$$
[H]c1nc2sc3c(=O)n(C4([H])C([H])([H])C([H])([H])C([H])([H])C([H])([H])C4([H])[H])c([H])nc3c2c(N(C([H])([H])[H])C([H])([H])[H])c1[H]


 23 26  0  0  0  0  0  0  0  0999 V2000
  -84.6137   29.6213    1.5197 C   0  0  0  0  0  0  0  0  0  0  0  0
  -84.1165   28.6128    2.3204 C   0  0  0  0  0  0  0  0  0  0  0  0
  -84.6340   27.3403    2.3940 C   0  0  0  0  0  0  0  0  0  0  0  0
  -85.7010   27.1132    1.6096 N   0  0  0  0  0  0  0  0  0  0  0  0
  -86.2361   28.0789    0.7956 C   0  0  0  0  0  0  0  0  0  0  0  0
  -87.5604   28.0982   -0.2804 S   0  0  0  0  0  0  0  0  0  0  0  0
  -87.4569   29.7119   -0.8169 C   0  0  0  0  0  0  0  0  0  0  0  0
  -88.1924   30.5152   -1.7100 C   0  0  0  0  0  0  0  0  0  0  0  0
  -89.1504   29.9428   -2.2642 O   0  0  0  0  0  0  0  0  0  0  0  0
  -87.8665   31.7971   -1.9306 N   0  0  0  0  0  0  0  0  0  0  0  0
  -86.8054   32.2596   -1.2523 C   0  0  0  0  0  0  0  0  0  0  0  0
  -86.1005   31.5167   -0.4070 N   0  0  0  0  0  0  0  0  0  0  0  0
  -86.3781   30.2007   -0.1353 C   0  0  0  0  0  0  0  0  0  0  0  0
  -85.7384   29.3510    0.7065 C   0  0  0  0  0  0  0  0  0  0  0  0
  -88.6441   32.5855   -2.8519 C   0  0  0  0  0  0  0  0  0  0  0  0
  -88.6006   34.0584   -2.5288 C   0  0  0  0  0  0  0  0  0  0  0  0
  -89.5395   34.7631   -3.4644 C   0  0  0  0  0  0  0  0  0  0  0  0
  -90.1310   33.8952   -4.5158 C   0  0  0  0  0  0  0  0  0  0  0  0
  -89.1661   32.9764   -5.1952 C   0  0  0  0  0  0  0  0  0  0  0  0
  -88.0814   32.4664   -4.2749 C   0  0  0  0  0  0  0  0  0  0  0  0
  -82.8461   31.2406    0.6666 C   0  0  0  0  0  0  0  0  0  0  0  0
  -83.9390   30.8662    1.5383 N   0  0  0  0  0  0  0  0  0  0  0  0
  -84.3830   31.8447    2.5129 C   0  0  0  0  0  0  0  0  0  0  0  0
 21 22  1  0  0  0
 22 23  1  0  0  0
 22  1  1  0  0  0
  1  2  2  0  0  0
  2  3  1  0  0  0
  3  4  2  0  0  0
  4  5  1  0  0  0
  5  6  1  0  0  0
  6  7  1  0  0  0
  7  8  1  0  0  0
  8  9  2  0  0  0
  8 10  1  0  0  0
 10 15  1  0  0  0
 15 16  1  0  0  0
 16 17  1  0  0  0
 17 18  1  0  0  0
 18 19  1  0  0  0
 19 20  1  0  0  0
 10 11  1  0  0  0
 11 12  2  0  0  0
 12 13  1  0  0  0
 13 14  1  0  0  0
 14  1  1  0  0  0
 14  5  2  0  0  0
 13  7  2  0  0  0
 20 15  1  0  0  0
M  END
> <minimizedAffinity>
-7.66151

> <CNNscore>
0.2259612381

> <CNNaffinity>
6.0887145996

> <CNN_VS>
1.3758134842

> <CNNaffinity_variance>
0.2254712582

$$$$
[H]c1nc2sc3c(=O)n(C4([H])C([H])([H])C([H])([H])C([H])([H])C([H])([H])C4([H])[H])c([H])nc3c2c(N(C([H])([H])[H])C([H])([H])[H])c1[H]


 23 26  0  0  0  0  0  0  0  0999 V2000
  -86.6930   29.8484    0.1093 C   0  0  0  0  0  0  0  0  0  0  0  0
  -85.8735   29.3945    1.1230 C   0  0  0  0  0  0  0  0  0  0  0  0
  -84.8643   30.1263    1.7049 C   0  0  0  0  0  0  0  0  0  0  0  0
  -84.7054   31.3673    1.2151 N   0  0  0  0  0  0  0  0  0  0  0  0
  -85.4907   31.8683    0.2083 C   0  0  0  0  0  0  0  0  0  0  0  0
  -85.5250   33.3637   -0.6131 S   0  0  0  0  0  0  0  0  0  0  0  0
  -86.8108   33.0587   -1.6884 C   0  0  0  0  0  0  0  0  0  0  0  0
  -87.4562   33.7902   -2.7045 C   0  0  0  0  0  0  0  0  0  0  0  0
  -87.0140   34.9410   -2.8849 O   0  0  0  0  0  0  0  0  0  0  0  0
  -88.4682   33.2656   -3.4107 N   0  0  0  0  0  0  0  0  0  0  0  0
  -88.8222   32.0120   -3.0897 C   0  0  0  0  0  0  0  0  0  0  0  0
  -88.2253   31.3080   -2.1350 N   0  0  0  0  0  0  0  0  0  0  0  0
  -87.1861   31.7826   -1.3751 C   0  0  0  0  0  0  0  0  0  0  0  0
  -86.4996   31.1588   -0.3854 C   0  0  0  0  0  0  0  0  0  0  0  0
  -89.1022   34.0464   -4.4419 C   0  0  0  0  0  0  0  0  0  0  0  0
  -89.9123   33.1983   -5.3907 C   0  0  0  0  0  0  0  0  0  0  0  0
  -90.4171   34.0891   -6.4884 C   0  0  0  0  0  0  0  0  0  0  0  0
  -90.1303   35.5339   -6.2926 C   0  0  0  0  0  0  0  0  0  0  0  0
  -90.3959   36.0511   -4.9146 C   0  0  0  0  0  0  0  0  0  0  0  0
  -90.1017   35.0388   -3.8320 C   0  0  0  0  0  0  0  0  0  0  0  0
  -89.0566   28.9080    0.1664 C   0  0  0  0  0  0  0  0  0  0  0  0
  -87.7078   28.9759   -0.3538 N   0  0  0  0  0  0  0  0  0  0  0  0
  -87.3632   28.0776   -1.4394 C   0  0  0  0  0  0  0  0  0  0  0  0
 21 22  1  0  0  0
 22 23  1  0  0  0
 22  1  1  0  0  0
  1  2  2  0  0  0
  2  3  1  0  0  0
  3  4  2  0  0  0
  4  5  1  0  0  0
  5  6  1  0  0  0
  6  7  1  0  0  0
  7  8  1  0  0  0
  8  9  2  0  0  0
  8 10  1  0  0  0
 10 15  1  0  0  0
 15 16  1  0  0  0
 16 17  1  0  0  0
 17 18  1  0  0  0
 18 19  1  0  0  0
 19 20  1  0  0  0
 10 11  1  0  0  0
 11 12  2  0  0  0
 12 13  1  0  0  0
 13 14  1  0  0  0
 14  1  1  0  0  0
 14  5  2  0  0  0
 13  7  2  0  0  0
 20 15  1  0  0  0
M  END
> <minimizedAffinity>
-6.92913

> <CNNscore>
0.2254240215

> <CNNaffinity>
5.9101352692

> <CNN_VS>
1.3322864771

> <CNNaffinity_variance>
0.0974048600

$$$$
[H]c1nc2sc3c(=O)n(C4([H])C([H])([H])C([H])([H])C([H])([H])C([H])([H])C4([H])[H])c([H])nc3c2c(N(C([H])([H])[H])C([H])([H])[H])c1[H]


 23 26  0  0  0  0  0  0  0  0999 V2000
  -86.0923   28.1956    1.3711 C   0  0  0  0  0  0  0  0  0  0  0  0
  -85.1168   27.8244    2.2744 C   0  0  0  0  0  0  0  0  0  0  0  0
  -84.0329   28.5968    2.6222 C   0  0  0  0  0  0  0  0  0  0  0  0
  -83.9646   29.7909    2.0100 N   0  0  0  0  0  0  0  0  0  0  0  0
  -84.9056   30.2095    1.1041 C   0  0  0  0  0  0  0  0  0  0  0  0
  -85.0833   31.6300    0.1754 S   0  0  0  0  0  0  0  0  0  0  0  0
  -86.5230   31.2427   -0.6491 C   0  0  0  0  0  0  0  0  0  0  0  0
  -87.3291   31.8893   -1.6062 C   0  0  0  0  0  0  0  0  0  0  0  0
  -86.9307   33.0180   -1.9522 O   0  0  0  0  0  0  0  0  0  0  0  0
  -88.4375   31.3128   -2.0933 N   0  0  0  0  0  0  0  0  0  0  0  0
  -88.7254   30.0930   -1.6147 C   0  0  0  0  0  0  0  0  0  0  0  0
  -87.9772   29.4689   -0.7125 N   0  0  0  0  0  0  0  0  0  0  0  0
  -86.8329   30.0000   -0.1727 C   0  0  0  0  0  0  0  0  0  0  0  0
  -85.9913   29.4583    0.7427 C   0  0  0  0  0  0  0  0  0  0  0  0
  -89.2353   32.0072   -3.0713 C   0  0  0  0  0  0  0  0  0  0  0  0
  -88.5894   32.0242   -4.4345 C   0  0  0  0  0  0  0  0  0  0  0  0
  -89.4364   32.8760   -5.3349 C   0  0  0  0  0  0  0  0  0  0  0  0
  -90.7100   33.3411   -4.7267 C   0  0  0  0  0  0  0  0  0  0  0  0
  -91.4736   32.2952   -3.9786 C   0  0  0  0  0  0  0  0  0  0  0  0
  -90.5830   31.3005   -3.2707 C   0  0  0  0  0  0  0  0  0  0  0  0
  -87.2049   26.2782    0.1220 C   0  0  0  0  0  0  0  0  0  0  0  0
  -87.1615   27.2930    1.1529 N   0  0  0  0  0  0  0  0  0  0  0  0
  -88.3062   27.3972    2.0379 C   0  0  0  0  0  0  0  0  0  0  0  0
 21 22  1  0  0  0
 22 23  1  0  0  0
 22  1  1  0  0  0
  1  2  2  0  0  0
  2  3  1  0  0  0
  3  4  2  0  0  0
  4  5  1  0  0  0
  5  6  1  0  0  0
  6  7  1  0  0  0
  7  8  1  0  0  0
  8  9  2  0  0  0
  8 10  1  0  0  0
 10 15  1  0  0  0
 15 16  1  0  0  0
 16 17  1  0  0  0
 17 18  1  0  0  0
 18 19  1  0  0  0
 19 20  1  0  0  0
 10 11  1  0  0  0
 11 12  2  0  0  0
 12 13  1  0  0  0
 13 14  1  0  0  0
 14  1  1  0  0  0
 14  5  2  0  0  0
 13  7  2  0  0  0
 20 15  1  0  0  0
M  END
> <minimizedAffinity>
-6.90333

> <CNNscore>
0.2201261669

> <CNNaffinity>
6.0786943436

> <CNN_VS>
1.3380796909

> <CNNaffinity_variance>
0.2210561037

$$$$
[H]c1nc2sc3c(=O)n(C4([H])C([H])([H])C([H])([H])C([H])([H])C([H])([H])C4([H])[H])c([H])nc3c2c(N(C([H])([H])[H])C([H])([H])[H])c1[H]


 23 26  0  0  0  0  0  0  0  0999 V2000
  -89.3120   34.5027   -4.1272 C   0  0  0  0  0  0  0  0  0  0  0  0
  -90.4681   34.6368   -4.8694 C   0  0  0  0  0  0  0  0  0  0  0  0
  -91.4731   33.6998   -4.9348 C   0  0  0  0  0  0  0  0  0  0  0  0
  -91.2662   32.5907   -4.2050 N   0  0  0  0  0  0  0  0  0  0  0  0
  -90.1358   32.4053   -3.4505 C   0  0  0  0  0  0  0  0  0  0  0  0
  -89.5932   31.1329   -2.4512 S   0  0  0  0  0  0  0  0  0  0  0  0
  -88.1001   31.7875   -1.9568 C   0  0  0  0  0  0  0  0  0  0  0  0
  -87.0456   31.3535   -1.1299 C   0  0  0  0  0  0  0  0  0  0  0  0
  -87.2105   30.2316   -0.6137 O   0  0  0  0  0  0  0  0  0  0  0  0
  -85.9564   32.1093   -0.9287 N   0  0  0  0  0  0  0  0  0  0  0  0
  -85.9366   33.2931   -1.5597 C   0  0  0  0  0  0  0  0  0  0  0  0
  -86.9214   33.7181   -2.3425 N   0  0  0  0  0  0  0  0  0  0  0  0
  -88.0623   32.9974   -2.5910 C   0  0  0  0  0  0  0  0  0  0  0  0
  -89.1233   33.3231   -3.3707 C   0  0  0  0  0  0  0  0  0  0  0  0
  -84.8994   31.6296   -0.0755 C   0  0  0  0  0  0  0  0  0  0  0  0
  -83.6095   32.3856   -0.2758 C   0  0  0  0  0  0  0  0  0  0  0  0
  -82.5532   31.7244    0.5612 C   0  0  0  0  0  0  0  0  0  0  0  0
  -83.0544   30.6395    1.4444 C   0  0  0  0  0  0  0  0  0  0  0  0
  -84.3126   30.9582    2.1874 C   0  0  0  0  0  0  0  0  0  0  0  0
  -85.2624   31.8325    1.4019 C   0  0  0  0  0  0  0  0  0  0  0  0
  -88.4050   36.7065   -3.2354 C   0  0  0  0  0  0  0  0  0  0  0  0
  -88.3932   35.5802   -4.1442 N   0  0  0  0  0  0  0  0  0  0  0  0
  -87.3557   35.5489   -5.1576 C   0  0  0  0  0  0  0  0  0  0  0  0
 21 22  1  0  0  0
 22 23  1  0  0  0
 22  1  1  0  0  0
  1  2  2  0  0  0
  2  3  1  0  0  0
  3  4  2  0  0  0
  4  5  1  0  0  0
  5  6  1  0  0  0
  6  7  1  0  0  0
  7  8  1  0  0  0
  8  9  2  0  0  0
  8 10  1  0  0  0
 10 15  1  0  0  0
 15 16  1  0  0  0
 16 17  1  0  0  0
 17 18  1  0  0  0
 18 19  1  0  0  0
 19 20  1  0  0  0
 10 11  1  0  0  0
 11 12  2  0  0  0
 12 13  1  0  0  0
 13 14  1  0  0  0
 14  1  1  0  0  0
 14  5  2  0  0  0
 13  7  2  0  0  0
 20 15  1  0  0  0
M  END
> <minimizedAffinity>
-7.59793

> <CNNscore>
0.1982811987

> <CNNaffinity>
5.7235083580

> <CNN_VS>
1.1348640919

> <CNNaffinity_variance>
0.3376247287

$$$$
[H]c1nc2sc3c(=O)n(C4([H])C([H])([H])C([H])([H])C([H])([H])C([H])([H])C4([H])[H])c([H])nc3c2c(N(C([H])([H])[H])C([H])([H])[H])c1[H]


 23 26  0  0  0  0  0  0  0  0999 V2000
  -90.7253   26.8235   -0.3263 C   0  0  0  0  0  0  0  0  0  0  0  0
  -91.6080   25.7818   -0.1240 C   0  0  0  0  0  0  0  0  0  0  0  0
  -91.4838   24.8257    0.8574 C   0  0  0  0  0  0  0  0  0  0  0  0
  -90.4077   24.9603    1.6506 N   0  0  0  0  0  0  0  0  0  0  0  0
  -89.4988   25.9755    1.4937 C   0  0  0  0  0  0  0  0  0  0  0  0
  -88.0626   26.3957    2.3139 S   0  0  0  0  0  0  0  0  0  0  0  0
  -87.6239   27.7743    1.4142 C   0  0  0  0  0  0  0  0  0  0  0  0
  -86.5574   28.6935    1.4540 C   0  0  0  0  0  0  0  0  0  0  0  0
  -85.7184   28.4859    2.3514 O   0  0  0  0  0  0  0  0  0  0  0  0
  -86.4735   29.7076    0.5808 N   0  0  0  0  0  0  0  0  0  0  0  0
  -87.4611   29.7888   -0.3236 C   0  0  0  0  0  0  0  0  0  0  0  0
  -88.4739   28.9316   -0.3756 N   0  0  0  0  0  0  0  0  0  0  0  0
  -88.6216   27.8737    0.4856 C   0  0  0  0  0  0  0  0  0  0  0  0
  -89.6018   26.9370    0.5247 C   0  0  0  0  0  0  0  0  0  0  0  0
  -85.3666   30.6266    0.6546 C   0  0  0  0  0  0  0  0  0  0  0  0
  -84.0684   30.0020    0.2070 C   0  0  0  0  0  0  0  0  0  0  0  0
  -82.9714   30.9984    0.4455 C   0  0  0  0  0  0  0  0  0  0  0  0
  -83.4381   32.3340    0.9001 C   0  0  0  0  0  0  0  0  0  0  0  0
  -84.6110   32.8833    0.1522 C   0  0  0  0  0  0  0  0  0  0  0  0
  -85.5885   31.8180   -0.2872 C   0  0  0  0  0  0  0  0  0  0  0  0
  -90.6024   27.6120   -2.7424 C   0  0  0  0  0  0  0  0  0  0  0  0
  -91.0211   27.7416   -1.3631 N   0  0  0  0  0  0  0  0  0  0  0  0
  -91.8092   28.9071   -1.0098 C   0  0  0  0  0  0  0  0  0  0  0  0
 21 22  1  0  0  0
 22 23  1  0  0  0
 22  1  1  0  0  0
  1  2  2  0  0  0
  2  3  1  0  0  0
  3  4  2  0  0  0
  4  5  1  0  0  0
  5  6  1  0  0  0
  6  7  1  0  0  0
  7  8  1  0  0  0
  8  9  2  0  0  0
  8 10  1  0  0  0
 10 15  1  0  0  0
 15 16  1  0  0  0
 16 17  1  0  0  0
 17 18  1  0  0  0
 18 19  1  0  0  0
 19 20  1  0  0  0
 10 11  1  0  0  0
 11 12  2  0  0  0
 12 13  1  0  0  0
 13 14  1  0  0  0
 14  1  1  0  0  0
 14  5  2  0  0  0
 13  7  2  0  0  0
 20 15  1  0  0  0
M  END
> <minimizedAffinity>
-7.06937

> <CNNscore>
0.1762678325

> <CNNaffinity>
6.0183486938

> <CNN_VS>
1.0608413219

> <CNNaffinity_variance>
0.1973349452

$$$$
[H]c1c([H])c(-c2c(C([H])([H])C([H])([H])[H])c(C3=NC4(C(=O)N3[H])C([H])([H])C([H])([H])C4([H])[H])nn2-c2c([H])c([H])c(Cl)c([H])c2Cl)c([H])c([H])c1Cl


 32 36  0  0  0  0  0  0  0  0999 V2000
  -88.8965   31.5653   -1.8185 C   0  0  0  0  0  0  0  0  0  0  0  0
  -87.8196   31.0303   -1.1793 C   0  0  0  0  0  0  0  0  0  0  0  0
  -88.1677   29.7143   -1.0162 N   0  0  0  0  0  0  0  0  0  0  0  0
  -89.3609   29.4553   -1.5180 N   0  0  0  0  0  0  0  0  0  0  0  0
  -89.8686   30.5677   -2.0381 C   0  0  0  0  0  0  0  0  0  0  0  0
  -86.5353   31.5635   -0.7574 C   0  0  0  0  0  0  0  0  0  0  0  0
  -85.7251   30.8597    0.0337 N   0  0  0  0  0  0  0  0  0  0  0  0
  -84.5282   31.5556    0.3267 C   0  0  0  0  0  0  0  0  0  0  0  0
  -83.2375   30.8044    0.0903 C   0  0  0  0  0  0  0  0  0  0  0  0
  -83.0956   30.6409    1.5741 C   0  0  0  0  0  0  0  0  0  0  0  0
  -84.1586   31.6930    1.7832 C   0  0  0  0  0  0  0  0  0  0  0  0
  -84.5951   32.8266   -0.4103 C   0  0  0  0  0  0  0  0  0  0  0  0
  -83.7718   33.7640   -0.4977 O   0  0  0  0  0  0  0  0  0  0  0  0
  -85.8969   32.7703   -1.0592 N   0  0  0  0  0  0  0  0  0  0  0  0
  -86.2119   33.5671   -1.6505 H   0  0  0  0  0  0  0  0  0  0  0  0
  -89.9727   28.1648   -1.4969 C   0  0  0  0  0  0  0  0  0  0  0  0
  -89.8078   27.2202   -2.5064 C   0  0  0  0  0  0  0  0  0  0  0  0
  -90.4355   26.0017   -2.4604 C   0  0  0  0  0  0  0  0  0  0  0  0
  -91.2488   25.6799   -1.4096 C   0  0  0  0  0  0  0  0  0  0  0  0
  -92.0801   24.1419   -1.2873 Cl  0  0  0  0  0  0  0  0  0  0  0  0
  -91.4352   26.5866   -0.3971 C   0  0  0  0  0  0  0  0  0  0  0  0
  -90.7890   27.8333   -0.4517 C   0  0  0  0  0  0  0  0  0  0  0  0
  -91.1077   28.9658    0.8605 Cl  0  0  0  0  0  0  0  0  0  0  0  0
  -91.0601   30.7429   -2.8438 C   0  0  0  0  0  0  0  0  0  0  0  0
  -92.2989   30.8269   -2.2670 C   0  0  0  0  0  0  0  0  0  0  0  0
  -93.4513   30.8700   -3.0413 C   0  0  0  0  0  0  0  0  0  0  0  0
  -93.4096   30.8316   -4.4161 C   0  0  0  0  0  0  0  0  0  0  0  0
  -94.8531   30.8862   -5.4063 Cl  0  0  0  0  0  0  0  0  0  0  0  0
  -92.1679   30.7467   -5.0095 C   0  0  0  0  0  0  0  0  0  0  0  0
  -91.0314   30.7033   -4.2254 C   0  0  0  0  0  0  0  0  0  0  0  0
  -88.4543   33.2824   -3.5301 C   0  0  0  0  0  0  0  0  0  0  0  0
  -89.0317   33.0307   -2.1047 C   0  0  0  0  0  0  0  0  0  0  0  0
 31 32  1  0  0  0
 32  1  1  0  0  0
  1  2  1  0  0  0
  2  6  1  0  0  0
  6  7  2  0  0  0
  7  8  1  0  0  0
  8  9  1  0  0  0
  9 10  1  0  0  0
 10 11  1  0  0  0
  8 12  1  0  0  0
 12 13  2  0  0  0
 12 14  1  0  0  0
  2  3  2  0  0  0
  3  4  1  0  0  0
  4 16  1  0  0  0
 16 17  2  0  0  0
 17 18  1  0  0  0
 18 19  2  0  0  0
 19 20  1  0  0  0
 19 21  1  0  0  0
 21 22  2  0  0  0
 22 23  1  0  0  0
  4  5  1  0  0  0
  5 24  1  0  0  0
 24 25  2  0  0  0
 25 26  1  0  0  0
 26 27  2  0  0  0
 27 28  1  0  0  0
 27 29  1  0  0  0
 29 30  2  0  0  0
  5  1  2  0  0  0
 30 24  1  0  0  0
 14  6  1  0  0  0
 22 16  1  0  0  0
 11  8  1  0  0  0
 14 15  1  0  0  0
M  END
> <minimizedAffinity>
-8.25829

> <CNNscore>
0.2370598316

> <CNNaffinity>
6.9793305397

> <CNN_VS>
1.6545189619

> <CNNaffinity_variance>
0.1337383389

$$$$
[H]c1c([H])c(-c2c(C([H])([H])C([H])([H])[H])c(C3=NC4(C(=O)N3[H])C([H])([H])C([H])([H])C4([H])[H])nn2-c2c([H])c([H])c(Cl)c([H])c2Cl)c([H])c([H])c1Cl


 32 36  0  0  0  0  0  0  0  0999 V2000
  -86.4574   32.4627   -1.5546 C   0  0  0  0  0  0  0  0  0  0  0  0
  -87.4236   33.0219   -2.3345 C   0  0  0  0  0  0  0  0  0  0  0  0
  -88.4807   32.1595   -2.1990 N   0  0  0  0  0  0  0  0  0  0  0  0
  -88.1934   31.1514   -1.3966 N   0  0  0  0  0  0  0  0  0  0  0  0
  -86.9465   31.2830   -0.9566 C   0  0  0  0  0  0  0  0  0  0  0  0
  -87.4962   34.2387   -3.1254 C   0  0  0  0  0  0  0  0  0  0  0  0
  -88.5727   35.0242   -3.0813 N   0  0  0  0  0  0  0  0  0  0  0  0
  -88.4433   36.1549   -3.9224 C   0  0  0  0  0  0  0  0  0  0  0  0
  -88.7252   37.4996   -3.2911 C   0  0  0  0  0  0  0  0  0  0  0  0
  -90.0321   37.5370   -4.0253 C   0  0  0  0  0  0  0  0  0  0  0  0
  -89.5602   36.4044   -4.9059 C   0  0  0  0  0  0  0  0  0  0  0  0
  -87.1041   36.0739   -4.5251 C   0  0  0  0  0  0  0  0  0  0  0  0
  -86.5137   36.8483   -5.3100 O   0  0  0  0  0  0  0  0  0  0  0  0
  -86.5695   34.8304   -3.9894 N   0  0  0  0  0  0  0  0  0  0  0  0
  -85.6167   34.5176   -4.2683 H   0  0  0  0  0  0  0  0  0  0  0  0
  -89.1104   30.1070   -1.0671 C   0  0  0  0  0  0  0  0  0  0  0  0
  -90.0229   30.1888   -0.0188 C   0  0  0  0  0  0  0  0  0  0  0  0
  -90.8683   29.1513    0.2812 C   0  0  0  0  0  0  0  0  0  0  0  0
  -90.8359   27.9968   -0.4503 C   0  0  0  0  0  0  0  0  0  0  0  0
  -91.8874   26.6337   -0.1221 Cl  0  0  0  0  0  0  0  0  0  0  0  0
  -89.9489   27.8805   -1.4904 C   0  0  0  0  0  0  0  0  0  0  0  0
  -89.0855   28.9478   -1.7912 C   0  0  0  0  0  0  0  0  0  0  0  0
  -87.9424   28.7136   -3.1119 Cl  0  0  0  0  0  0  0  0  0  0  0  0
  -86.2508   30.5300    0.0673 C   0  0  0  0  0  0  0  0  0  0  0  0
  -85.6531   31.1595    1.1261 C   0  0  0  0  0  0  0  0  0  0  0  0
  -84.8816   30.4535    2.0403 C   0  0  0  0  0  0  0  0  0  0  0  0
  -84.6796   29.0968    1.9321 C   0  0  0  0  0  0  0  0  0  0  0  0
  -83.7108   28.1922    3.0769 Cl  0  0  0  0  0  0  0  0  0  0  0  0
  -85.2759   28.4509    0.8698 C   0  0  0  0  0  0  0  0  0  0  0  0
  -86.0389   29.1675   -0.0316 C   0  0  0  0  0  0  0  0  0  0  0  0
  -85.0346   34.1028   -0.3888 C   0  0  0  0  0  0  0  0  0  0  0  0
  -85.0570   32.9931   -1.4827 C   0  0  0  0  0  0  0  0  0  0  0  0
 31 32  1  0  0  0
 32  1  1  0  0  0
  1  2  1  0  0  0
  2  6  1  0  0  0
  6  7  2  0  0  0
  7  8  1  0  0  0
  8  9  1  0  0  0
  9 10  1  0  0  0
 10 11  1  0  0  0
  8 12  1  0  0  0
 12 13  2  0  0  0
 12 14  1  0  0  0
  2  3  2  0  0  0
  3  4  1  0  0  0
  4 16  1  0  0  0
 16 17  2  0  0  0
 17 18  1  0  0  0
 18 19  2  0  0  0
 19 20  1  0  0  0
 19 21  1  0  0  0
 21 22  2  0  0  0
 22 23  1  0  0  0
  4  5  1  0  0  0
  5 24  1  0  0  0
 24 25  2  0  0  0
 25 26  1  0  0  0
 26 27  2  0  0  0
 27 28  1  0  0  0
 27 29  1  0  0  0
 29 30  2  0  0  0
  5  1  2  0  0  0
 30 24  1  0  0  0
 14  6  1  0  0  0
 22 16  1  0  0  0
 11  8  1  0  0  0
 14 15  1  0  0  0
M  END
> <minimizedAffinity>
-8.68961

> <CNNscore>
0.2295006514

> <CNNaffinity>
6.9325966835

> <CNN_VS>
1.5910354853

> <CNNaffinity_variance>
0.3127102554

$$$$
[H]c1c([H])c(-c2c(C([H])([H])C([H])([H])[H])c(C3=NC4(C(=O)N3[H])C([H])([H])C([H])([H])C4([H])[H])nn2-c2c([H])c([H])c(Cl)c([H])c2Cl)c([H])c([H])c1Cl


 32 36  0  0  0  0  0  0  0  0999 V2000
  -89.3317   31.2880   -1.9572 C   0  0  0  0  0  0  0  0  0  0  0  0
  -88.3663   32.1926   -2.2799 C   0  0  0  0  0  0  0  0  0  0  0  0
  -87.2811   31.7721   -1.5553 N   0  0  0  0  0  0  0  0  0  0  0  0
  -87.5517   30.6923   -0.8458 N   0  0  0  0  0  0  0  0  0  0  0  0
  -88.8145   30.3355   -1.0550 C   0  0  0  0  0  0  0  0  0  0  0  0
  -88.3185   33.3318   -3.1808 C   0  0  0  0  0  0  0  0  0  0  0  0
  -89.0493   34.4226   -2.9491 N   0  0  0  0  0  0  0  0  0  0  0  0
  -88.8594   35.4132   -3.9418 C   0  0  0  0  0  0  0  0  0  0  0  0
  -88.5264   36.8038   -3.4505 C   0  0  0  0  0  0  0  0  0  0  0  0
  -89.9242   37.2265   -3.7905 C   0  0  0  0  0  0  0  0  0  0  0  0
  -90.0998   35.9644   -4.6011 C   0  0  0  0  0  0  0  0  0  0  0  0
  -87.8560   34.8793   -4.8754 C   0  0  0  0  0  0  0  0  0  0  0  0
  -87.3360   35.3871   -5.8932 O   0  0  0  0  0  0  0  0  0  0  0  0
  -87.5718   33.5552   -4.3417 N   0  0  0  0  0  0  0  0  0  0  0  0
  -86.8867   32.9406   -4.8280 H   0  0  0  0  0  0  0  0  0  0  0  0
  -86.6049   30.0316   -0.0049 C   0  0  0  0  0  0  0  0  0  0  0  0
  -86.6478   28.6688    0.2770 C   0  0  0  0  0  0  0  0  0  0  0  0
  -85.7342   28.0782    1.1121 C   0  0  0  0  0  0  0  0  0  0  0  0
  -84.7464   28.8216    1.6959 C   0  0  0  0  0  0  0  0  0  0  0  0
  -83.5471   28.1316    2.7714 Cl  0  0  0  0  0  0  0  0  0  0  0  0
  -84.6739   30.1678    1.4414 C   0  0  0  0  0  0  0  0  0  0  0  0
  -85.6141   30.7657    0.5851 C   0  0  0  0  0  0  0  0  0  0  0  0
  -85.4880   32.5060    0.3372 Cl  0  0  0  0  0  0  0  0  0  0  0  0
  -89.5090   29.1337   -0.6395 C   0  0  0  0  0  0  0  0  0  0  0  0
  -90.1908   29.0841    0.5468 C   0  0  0  0  0  0  0  0  0  0  0  0
  -90.7516   27.8987    1.0050 C   0  0  0  0  0  0  0  0  0  0  0  0
  -90.6533   26.7227    0.2976 C   0  0  0  0  0  0  0  0  0  0  0  0
  -91.3557   25.2205    0.8610 Cl  0  0  0  0  0  0  0  0  0  0  0  0
  -89.9688   26.7591   -0.8988 C   0  0  0  0  0  0  0  0  0  0  0  0
  -89.4157   27.9456   -1.3400 C   0  0  0  0  0  0  0  0  0  0  0  0
  -90.8910   30.5758   -3.7277 C   0  0  0  0  0  0  0  0  0  0  0  0
  -90.7529   31.4100   -2.4188 C   0  0  0  0  0  0  0  0  0  0  0  0
 31 32  1  0  0  0
 32  1  1  0  0  0
  1  2  1  0  0  0
  2  6  1  0  0  0
  6  7  2  0  0  0
  7  8  1  0  0  0
  8  9  1  0  0  0
  9 10  1  0  0  0
 10 11  1  0  0  0
  8 12  1  0  0  0
 12 13  2  0  0  0
 12 14  1  0  0  0
  2  3  2  0  0  0
  3  4  1  0  0  0
  4 16  1  0  0  0
 16 17  2  0  0  0
 17 18  1  0  0  0
 18 19  2  0  0  0
 19 20  1  0  0  0
 19 21  1  0  0  0
 21 22  2  0  0  0
 22 23  1  0  0  0
  4  5  1  0  0  0
  5 24  1  0  0  0
 24 25  2  0  0  0
 25 26  1  0  0  0
 26 27  2  0  0  0
 27 28  1  0  0  0
 27 29  1  0  0  0
 29 30  2  0  0  0
  5  1  2  0  0  0
 30 24  1  0  0  0
 14  6  1  0  0  0
 22 16  1  0  0  0
 11  8  1  0  0  0
 14 15  1  0  0  0
M  END
> <minimizedAffinity>
-8.80600

> <CNNscore>
0.1965034306

> <CNNaffinity>
6.8384270668

> <CNN_VS>
1.3437744379

> <CNNaffinity_variance>
0.2584945261

$$$$
[H]c1c([H])c(-c2c(C([H])([H])C([H])([H])[H])c(C3=NC4(C(=O)N3[H])C([H])([H])C([H])([H])C4([H])[H])nn2-c2c([H])c([H])c(Cl)c([H])c2Cl)c([H])c([H])c1Cl


 32 36  0  0  0  0  0  0  0  0999 V2000
  -87.0526   32.4731   -1.2202 C   0  0  0  0  0  0  0  0  0  0  0  0
  -88.0698   32.7942   -2.0667 C   0  0  0  0  0  0  0  0  0  0  0  0
  -88.7015   31.5953   -2.2745 N   0  0  0  0  0  0  0  0  0  0  0  0
  -88.1249   30.6132   -1.6070 N   0  0  0  0  0  0  0  0  0  0  0  0
  -87.0913   31.0947   -0.9246 C   0  0  0  0  0  0  0  0  0  0  0  0
  -88.5358   34.0414   -2.6488 C   0  0  0  0  0  0  0  0  0  0  0  0
  -87.6746   34.9758   -3.0524 N   0  0  0  0  0  0  0  0  0  0  0  0
  -88.3298   36.1101   -3.5879 C   0  0  0  0  0  0  0  0  0  0  0  0
  -87.8633   36.5776   -4.9480 C   0  0  0  0  0  0  0  0  0  0  0  0
  -87.1677   37.7267   -4.2817 C   0  0  0  0  0  0  0  0  0  0  0  0
  -87.9453   37.4527   -3.0163 C   0  0  0  0  0  0  0  0  0  0  0  0
  -89.7704   35.8169   -3.5454 C   0  0  0  0  0  0  0  0  0  0  0  0
  -90.7523   36.4896   -3.9298 O   0  0  0  0  0  0  0  0  0  0  0  0
  -89.8270   34.5010   -2.9256 N   0  0  0  0  0  0  0  0  0  0  0  0
  -90.7503   34.0490   -2.7614 H   0  0  0  0  0  0  0  0  0  0  0  0
  -88.5775   29.2588   -1.6300 C   0  0  0  0  0  0  0  0  0  0  0  0
  -88.0503   28.2872   -2.4766 C   0  0  0  0  0  0  0  0  0  0  0  0
  -88.5325   27.0034   -2.4861 C   0  0  0  0  0  0  0  0  0  0  0  0
  -89.5554   26.6407   -1.6545 C   0  0  0  0  0  0  0  0  0  0  0  0
  -90.2185   25.0190   -1.6146 Cl  0  0  0  0  0  0  0  0  0  0  0  0
  -90.0999   27.5721   -0.8072 C   0  0  0  0  0  0  0  0  0  0  0  0
  -89.6007   28.8858   -0.8037 C   0  0  0  0  0  0  0  0  0  0  0  0
  -90.3757   30.0409    0.2783 Cl  0  0  0  0  0  0  0  0  0  0  0  0
  -86.2694   30.4443    0.0759 C   0  0  0  0  0  0  0  0  0  0  0  0
  -84.9056   30.5634    0.0585 C   0  0  0  0  0  0  0  0  0  0  0  0
  -84.1094   29.8424    0.9392 C   0  0  0  0  0  0  0  0  0  0  0  0
  -84.6439   28.9789    1.8677 C   0  0  0  0  0  0  0  0  0  0  0  0
  -83.6540   28.0638    2.9856 Cl  0  0  0  0  0  0  0  0  0  0  0  0
  -86.0164   28.8497    1.8953 C   0  0  0  0  0  0  0  0  0  0  0  0
  -86.7942   29.5726    1.0117 C   0  0  0  0  0  0  0  0  0  0  0  0
  -84.8151   33.3237   -1.8062 C   0  0  0  0  0  0  0  0  0  0  0  0
  -85.9985   33.4531   -0.8007 C   0  0  0  0  0  0  0  0  0  0  0  0
 31 32  1  0  0  0
 32  1  1  0  0  0
  1  2  1  0  0  0
  2  6  1  0  0  0
  6  7  2  0  0  0
  7  8  1  0  0  0
  8  9  1  0  0  0
  9 10  1  0  0  0
 10 11  1  0  0  0
  8 12  1  0  0  0
 12 13  2  0  0  0
 12 14  1  0  0  0
  2  3  2  0  0  0
  3  4  1  0  0  0
  4 16  1  0  0  0
 16 17  2  0  0  0
 17 18  1  0  0  0
 18 19  2  0  0  0
 19 20  1  0  0  0
 19 21  1  0  0  0
 21 22  2  0  0  0
 22 23  1  0  0  0
  4  5  1  0  0  0
  5 24  1  0  0  0
 24 25  2  0  0  0
 25 26  1  0  0  0
 26 27  2  0  0  0
 27 28  1  0  0  0
 27 29  1  0  0  0
 29 30  2  0  0  0
  5  1  2  0  0  0
 30 24  1  0  0  0
 14  6  1  0  0  0
 22 16  1  0  0  0
 11  8  1  0  0  0
 14 15  1  0  0  0
M  END
> <minimizedAffinity>
-8.51179

> <CNNscore>
0.1332090944

> <CNNaffinity>
6.8128829002

> <CNN_VS>
0.9075379372

> <CNNaffinity_variance>
0.2661883235

$$$$
[H]c1c([H])c(-c2c(C([H])([H])C([H])([H])[H])c(C3=NC4(C(=O)N3[H])C([H])([H])C([H])([H])C4([H])[H])nn2-c2c([H])c([H])c(Cl)c([H])c2Cl)c([H])c([H])c1Cl


 32 36  0  0  0  0  0  0  0  0999 V2000
  -88.7455   29.8008   -1.2910 C   0  0  0  0  0  0  0  0  0  0  0  0
  -87.7432   29.9178   -0.3765 C   0  0  0  0  0  0  0  0  0  0  0  0
  -87.9841   28.8860    0.4935 N   0  0  0  0  0  0  0  0  0  0  0  0
  -89.0462   28.1847    0.1430 N   0  0  0  0  0  0  0  0  0  0  0  0
  -89.5659   28.7009   -0.9657 C   0  0  0  0  0  0  0  0  0  0  0  0
  -86.6051   30.8113   -0.2430 C   0  0  0  0  0  0  0  0  0  0  0  0
  -85.4736   30.4023    0.3316 N   0  0  0  0  0  0  0  0  0  0  0  0
  -84.4920   31.4212    0.3624 C   0  0  0  0  0  0  0  0  0  0  0  0
  -83.1258   31.0564   -0.1729 C   0  0  0  0  0  0  0  0  0  0  0  0
  -82.6190   31.0072    1.2375 C   0  0  0  0  0  0  0  0  0  0  0  0
  -83.8650   31.7236    1.7013 C   0  0  0  0  0  0  0  0  0  0  0  0
  -85.0807   32.5866   -0.3148 C   0  0  0  0  0  0  0  0  0  0  0  0
  -84.6004   33.7138   -0.5658 O   0  0  0  0  0  0  0  0  0  0  0  0
  -86.4217   32.1346   -0.6559 N   0  0  0  0  0  0  0  0  0  0  0  0
  -87.0739   32.7819   -1.1451 H   0  0  0  0  0  0  0  0  0  0  0  0
  -89.5247   27.0473    0.8622 C   0  0  0  0  0  0  0  0  0  0  0  0
  -89.1223   25.7422    0.5910 C   0  0  0  0  0  0  0  0  0  0  0  0
  -89.6270   24.6746    1.2883 C   0  0  0  0  0  0  0  0  0  0  0  0
  -90.5491   24.8670    2.2792 C   0  0  0  0  0  0  0  0  0  0  0  0
  -91.2341   23.5490    3.2092 Cl  0  0  0  0  0  0  0  0  0  0  0  0
  -90.9694   26.1393    2.5733 C   0  0  0  0  0  0  0  0  0  0  0  0
  -90.4479   27.2282    1.8540 C   0  0  0  0  0  0  0  0  0  0  0  0
  -91.0643   28.8298    2.2547 Cl  0  0  0  0  0  0  0  0  0  0  0  0
  -90.6179   28.1794   -1.8147 C   0  0  0  0  0  0  0  0  0  0  0  0
  -91.9195   28.5717   -1.6513 C   0  0  0  0  0  0  0  0  0  0  0  0
  -92.9450   27.9821   -2.3793 C   0  0  0  0  0  0  0  0  0  0  0  0
  -92.7097   26.9826   -3.2952 C   0  0  0  0  0  0  0  0  0  0  0  0
  -93.9914   26.2300   -4.2216 Cl  0  0  0  0  0  0  0  0  0  0  0  0
  -91.4031   26.5781   -3.4689 C   0  0  0  0  0  0  0  0  0  0  0  0
  -90.3946   27.1734   -2.7362 C   0  0  0  0  0  0  0  0  0  0  0  0
  -88.1020   30.3629   -3.6025 C   0  0  0  0  0  0  0  0  0  0  0  0
  -88.9729   30.7990   -2.3861 C   0  0  0  0  0  0  0  0  0  0  0  0
 31 32  1  0  0  0
 32  1  1  0  0  0
  1  2  1  0  0  0
  2  6  1  0  0  0
  6  7  2  0  0  0
  7  8  1  0  0  0
  8  9  1  0  0  0
  9 10  1  0  0  0
 10 11  1  0  0  0
  8 12  1  0  0  0
 12 13  2  0  0  0
 12 14  1  0  0  0
  2  3  2  0  0  0
  3  4  1  0  0  0
  4 16  1  0  0  0
 16 17  2  0  0  0
 17 18  1  0  0  0
 18 19  2  0  0  0
 19 20  1  0  0  0
 19 21  1  0  0  0
 21 22  2  0  0  0
 22 23  1  0  0  0
  4  5  1  0  0  0
  5 24  1  0  0  0
 24 25  2  0  0  0
 25 26  1  0  0  0
 26 27  2  0  0  0
 27 28  1  0  0  0
 27 29  1  0  0  0
 29 30  2  0  0  0
  5  1  2  0  0  0
 30 24  1  0  0  0
 14  6  1  0  0  0
 22 16  1  0  0  0
 11  8  1  0  0  0
 14 15  1  0  0  0
M  END
> <minimizedAffinity>
-8.55339

> <CNNscore>
0.1073881239

> <CNNaffinity>
6.6901106834

> <CNN_VS>
0.7184384465

> <CNNaffinity_variance>
0.2481466085

$$$$
[H]c1c([H])c(-c2c(C([H])([H])C([H])([H])[H])c(C3=NC4(C(=O)N3[H])C([H])([H])C([H])([H])C4([H])[H])nn2-c2c([H])c([H])c(Cl)c([H])c2Cl)c([H])c([H])c1Cl


 32 36  0  0  0  0  0  0  0  0999 V2000
  -88.0085   27.7601   -0.2735 C   0  0  0  0  0  0  0  0  0  0  0  0
  -88.9771   27.2364   -1.0748 C   0  0  0  0  0  0  0  0  0  0  0  0
  -89.1848   28.2198   -2.0073 N   0  0  0  0  0  0  0  0  0  0  0  0
  -88.4046   29.2647   -1.8023 N   0  0  0  0  0  0  0  0  0  0  0  0
  -87.6422   29.0404   -0.7374 C   0  0  0  0  0  0  0  0  0  0  0  0
  -89.6754   25.9624   -1.1047 C   0  0  0  0  0  0  0  0  0  0  0  0
  -90.4426   25.5748   -0.0855 N   0  0  0  0  0  0  0  0  0  0  0  0
  -91.0309   24.3078   -0.3117 C   0  0  0  0  0  0  0  0  0  0  0  0
  -92.5267   24.2144   -0.1119 C   0  0  0  0  0  0  0  0  0  0  0  0
  -92.2794   23.4828    1.1734 C   0  0  0  0  0  0  0  0  0  0  0  0
  -90.8419   23.2665    0.7640 C   0  0  0  0  0  0  0  0  0  0  0  0
  -90.6043   23.8850   -1.6543 C   0  0  0  0  0  0  0  0  0  0  0  0
  -90.8820   22.8594   -2.3140 O   0  0  0  0  0  0  0  0  0  0  0  0
  -89.7376   24.9709   -2.0887 N   0  0  0  0  0  0  0  0  0  0  0  0
  -89.2809   24.9224   -3.0228 H   0  0  0  0  0  0  0  0  0  0  0  0
  -88.4008   30.4318   -2.6258 C   0  0  0  0  0  0  0  0  0  0  0  0
  -87.6933   30.5259   -3.8212 C   0  0  0  0  0  0  0  0  0  0  0  0
  -87.6947   31.6755   -4.5690 C   0  0  0  0  0  0  0  0  0  0  0  0
  -88.3993   32.7713   -4.1546 C   0  0  0  0  0  0  0  0  0  0  0  0
  -88.4451   34.2706   -5.0610 Cl  0  0  0  0  0  0  0  0  0  0  0  0
  -89.1077   32.7151   -2.9811 C   0  0  0  0  0  0  0  0  0  0  0  0
  -89.1008   31.5337   -2.2201 C   0  0  0  0  0  0  0  0  0  0  0  0
  -89.9966   31.5459   -0.7025 Cl  0  0  0  0  0  0  0  0  0  0  0  0
  -86.5235   29.8098   -0.2316 C   0  0  0  0  0  0  0  0  0  0  0  0
  -86.6306   31.1578   -0.0170 C   0  0  0  0  0  0  0  0  0  0  0  0
  -85.5268   31.9178    0.3485 C   0  0  0  0  0  0  0  0  0  0  0  0
  -84.2792   31.3617    0.5136 C   0  0  0  0  0  0  0  0  0  0  0  0
  -82.8782   32.3058    0.9752 Cl  0  0  0  0  0  0  0  0  0  0  0  0
  -84.1578   30.0049    0.3001 C   0  0  0  0  0  0  0  0  0  0  0  0
  -85.2648   29.2632   -0.0645 C   0  0  0  0  0  0  0  0  0  0  0  0
  -88.4097   27.6160    2.1538 C   0  0  0  0  0  0  0  0  0  0  0  0
  -87.5326   27.0876    0.9791 C   0  0  0  0  0  0  0  0  0  0  0  0
 31 32  1  0  0  0
 32  1  1  0  0  0
  1  2  1  0  0  0
  2  6  1  0  0  0
  6  7  2  0  0  0
  7  8  1  0  0  0
  8  9  1  0  0  0
  9 10  1  0  0  0
 10 11  1  0  0  0
  8 12  1  0  0  0
 12 13  2  0  0  0
 12 14  1  0  0  0
  2  3  2  0  0  0
  3  4  1  0  0  0
  4 16  1  0  0  0
 16 17  2  0  0  0
 17 18  1  0  0  0
 18 19  2  0  0  0
 19 20  1  0  0  0
 19 21  1  0  0  0
 21 22  2  0  0  0
 22 23  1  0  0  0
  4  5  1  0  0  0
  5 24  1  0  0  0
 24 25  2  0  0  0
 25 26  1  0  0  0
 26 27  2  0  0  0
 27 28  1  0  0  0
 27 29  1  0  0  0
 29 30  2  0  0  0
  5  1  2  0  0  0
 30 24  1  0  0  0
 14  6  1  0  0  0
 22 16  1  0  0  0
 11  8  1  0  0  0
 14 15  1  0  0  0
M  END
> <minimizedAffinity>
-9.18935

> <CNNscore>
0.0961625203

> <CNNaffinity>
6.4035348892

> <CNN_VS>
0.6157800555

> <CNNaffinity_variance>
0.4245169163

$$$$
[H]c1c([H])c(-c2c(C([H])([H])C([H])([H])[H])c(C3=NC4(C(=O)N3[H])C([H])([H])C([H])([H])C4([H])[H])nn2-c2c([H])c([H])c(Cl)c([H])c2Cl)c([H])c([H])c1Cl


 32 36  0  0  0  0  0  0  0  0999 V2000
  -89.6335   28.4781   -0.8032 C   0  0  0  0  0  0  0  0  0  0  0  0
  -89.2085   28.0150    0.4049 C   0  0  0  0  0  0  0  0  0  0  0  0
  -88.1300   28.8121    0.6898 N   0  0  0  0  0  0  0  0  0  0  0  0
  -87.9088   29.6993   -0.2623 N   0  0  0  0  0  0  0  0  0  0  0  0
  -88.8152   29.5474   -1.2221 C   0  0  0  0  0  0  0  0  0  0  0  0
  -89.6920   26.9895    1.3138 C   0  0  0  0  0  0  0  0  0  0  0  0
  -89.4645   27.0703    2.6251 N   0  0  0  0  0  0  0  0  0  0  0  0
  -90.0169   25.9753    3.3312 C   0  0  0  0  0  0  0  0  0  0  0  0
  -90.8888   26.3113    4.5199 C   0  0  0  0  0  0  0  0  0  0  0  0
  -89.7716   25.8819    5.4231 C   0  0  0  0  0  0  0  0  0  0  0  0
  -89.0894   25.2188    4.2502 C   0  0  0  0  0  0  0  0  0  0  0  0
  -90.7042   25.1412    2.3336 C   0  0  0  0  0  0  0  0  0  0  0  0
  -91.3649   24.0876    2.4659 O   0  0  0  0  0  0  0  0  0  0  0  0
  -90.4436   25.8338    1.0800 N   0  0  0  0  0  0  0  0  0  0  0  0
  -90.8155   25.4435    0.1896 H   0  0  0  0  0  0  0  0  0  0  0  0
  -86.8564   30.6641   -0.2255 C   0  0  0  0  0  0  0  0  0  0  0  0
  -87.0201   31.9940   -0.6040 C   0  0  0  0  0  0  0  0  0  0  0  0
  -85.9756   32.8824   -0.5792 C   0  0  0  0  0  0  0  0  0  0  0  0
  -84.7323   32.4800   -0.1775 C   0  0  0  0  0  0  0  0  0  0  0  0
  -83.3550   33.5621   -0.1212 Cl  0  0  0  0  0  0  0  0  0  0  0  0
  -84.5338   31.1766    0.2018 C   0  0  0  0  0  0  0  0  0  0  0  0
  -85.6089   30.2720    0.1732 C   0  0  0  0  0  0  0  0  0  0  0  0
  -85.2728   28.6040    0.6318 Cl  0  0  0  0  0  0  0  0  0  0  0  0
  -89.0838   30.3878   -2.3715 C   0  0  0  0  0  0  0  0  0  0  0  0
  -88.2894   30.3389   -3.4856 C   0  0  0  0  0  0  0  0  0  0  0  0
  -88.4693   31.2290   -4.5367 C   0  0  0  0  0  0  0  0  0  0  0  0
  -89.4464   32.1974   -4.5148 C   0  0  0  0  0  0  0  0  0  0  0  0
  -89.6868   33.3261   -5.8323 Cl  0  0  0  0  0  0  0  0  0  0  0  0
  -90.2532   32.2575   -3.3982 C   0  0  0  0  0  0  0  0  0  0  0  0
  -90.0605   31.3660   -2.3606 C   0  0  0  0  0  0  0  0  0  0  0  0
  -90.0717   26.7672   -2.5220 C   0  0  0  0  0  0  0  0  0  0  0  0
  -90.7317   27.8256   -1.5879 C   0  0  0  0  0  0  0  0  0  0  0  0
 31 32  1  0  0  0
 32  1  1  0  0  0
  1  2  1  0  0  0
  2  6  1  0  0  0
  6  7  2  0  0  0
  7  8  1  0  0  0
  8  9  1  0  0  0
  9 10  1  0  0  0
 10 11  1  0  0  0
  8 12  1  0  0  0
 12 13  2  0  0  0
 12 14  1  0  0  0
  2  3  2  0  0  0
  3  4  1  0  0  0
  4 16  1  0  0  0
 16 17  2  0  0  0
 17 18  1  0  0  0
 18 19  2  0  0  0
 19 20  1  0  0  0
 19 21  1  0  0  0
 21 22  2  0  0  0
 22 23  1  0  0  0
  4  5  1  0  0  0
  5 24  1  0  0  0
 24 25  2  0  0  0
 25 26  1  0  0  0
 26 27  2  0  0  0
 27 28  1  0  0  0
 27 29  1  0  0  0
 29 30  2  0  0  0
  5  1  2  0  0  0
 30 24  1  0  0  0
 14  6  1  0  0  0
 22 16  1  0  0  0
 11  8  1  0  0  0
 14 15  1  0  0  0
M  END
> <minimizedAffinity>
-8.92438

> <CNNscore>
0.0934720561

> <CNNaffinity>
6.6587471962

> <CNN_VS>
0.6224067807

> <CNNaffinity_variance>
0.1870660484

$$$$
[H]c1c([H])c(-c2c(C([H])([H])C([H])([H])[H])c(C3=NC4(C(=O)N3[H])C([H])([H])C([H])([H])C4([H])[H])nn2-c2c([H])c([H])c(Cl)c([H])c2Cl)c([H])c([H])c1Cl


 32 36  0  0  0  0  0  0  0  0999 V2000
  -88.9895   28.3740   -1.6895 C   0  0  0  0  0  0  0  0  0  0  0  0
  -90.2130   27.7880   -1.8094 C   0  0  0  0  0  0  0  0  0  0  0  0
  -90.4716   27.3291   -0.5436 N   0  0  0  0  0  0  0  0  0  0  0  0
  -89.4901   27.6124    0.2924 N   0  0  0  0  0  0  0  0  0  0  0  0
  -88.5352   28.2683   -0.3587 C   0  0  0  0  0  0  0  0  0  0  0  0
  -91.1557   27.6473   -2.9062 C   0  0  0  0  0  0  0  0  0  0  0  0
  -91.8766   28.6855   -3.3306 N   0  0  0  0  0  0  0  0  0  0  0  0
  -92.7313   28.3389   -4.4040 C   0  0  0  0  0  0  0  0  0  0  0  0
  -92.6638   29.2208   -5.6303 C   0  0  0  0  0  0  0  0  0  0  0  0
  -93.9793   29.8216   -5.2341 C   0  0  0  0  0  0  0  0  0  0  0  0
  -94.1908   28.6917   -4.2546 C   0  0  0  0  0  0  0  0  0  0  0  0
  -92.4715   26.9222   -4.7016 C   0  0  0  0  0  0  0  0  0  0  0  0
  -92.9524   26.1704   -5.5779 O   0  0  0  0  0  0  0  0  0  0  0  0
  -91.4778   26.5468   -3.7063 N   0  0  0  0  0  0  0  0  0  0  0  0
  -91.1165   25.5708   -3.6827 H   0  0  0  0  0  0  0  0  0  0  0  0
  -89.4950   27.2625    1.6772 C   0  0  0  0  0  0  0  0  0  0  0  0
  -88.7722   26.1944    2.2020 C   0  0  0  0  0  0  0  0  0  0  0  0
  -88.8260   25.8756    3.5347 C   0  0  0  0  0  0  0  0  0  0  0  0
  -89.5998   26.6072    4.3921 C   0  0  0  0  0  0  0  0  0  0  0  0
  -89.7138   26.2555    6.1051 Cl  0  0  0  0  0  0  0  0  0  0  0  0
  -90.3263   27.6664    3.9100 C   0  0  0  0  0  0  0  0  0  0  0  0
  -90.2664   27.9865    2.5429 C   0  0  0  0  0  0  0  0  0  0  0  0
  -91.2586   29.3319    1.9848 Cl  0  0  0  0  0  0  0  0  0  0  0  0
  -87.3578   28.9316    0.1640 C   0  0  0  0  0  0  0  0  0  0  0  0
  -87.2254   30.2929    0.1011 C   0  0  0  0  0  0  0  0  0  0  0  0
  -86.0474   30.9195    0.4872 C   0  0  0  0  0  0  0  0  0  0  0  0
  -84.9615   30.2124    0.9498 C   0  0  0  0  0  0  0  0  0  0  0  0
  -83.4700   30.9875    1.4415 Cl  0  0  0  0  0  0  0  0  0  0  0  0
  -85.0819   28.8405    1.0177 C   0  0  0  0  0  0  0  0  0  0  0  0
  -86.2596   28.2323    0.6286 C   0  0  0  0  0  0  0  0  0  0  0  0
  -88.7158   30.3796   -3.0951 C   0  0  0  0  0  0  0  0  0  0  0  0
  -88.2265   28.9190   -2.8592 C   0  0  0  0  0  0  0  0  0  0  0  0
 31 32  1  0  0  0
 32  1  1  0  0  0
  1  2  1  0  0  0
  2  6  1  0  0  0
  6  7  2  0  0  0
  7  8  1  0  0  0
  8  9  1  0  0  0
  9 10  1  0  0  0
 10 11  1  0  0  0
  8 12  1  0  0  0
 12 13  2  0  0  0
 12 14  1  0  0  0
  2  3  2  0  0  0
  3  4  1  0  0  0
  4 16  1  0  0  0
 16 17  2  0  0  0
 17 18  1  0  0  0
 18 19  2  0  0  0
 19 20  1  0  0  0
 19 21  1  0  0  0
 21 22  2  0  0  0
 22 23  1  0  0  0
  4  5  1  0  0  0
  5 24  1  0  0  0
 24 25  2  0  0  0
 25 26  1  0  0  0
 26 27  2  0  0  0
 27 28  1  0  0  0
 27 29  1  0  0  0
 29 30  2  0  0  0
  5  1  2  0  0  0
 30 24  1  0  0  0
 14  6  1  0  0  0
 22 16  1  0  0  0
 11  8  1  0  0  0
 14 15  1  0  0  0
M  END
> <minimizedAffinity>
-8.44613

> <CNNscore>
0.0910781771

> <CNNaffinity>
6.5944862366

> <CNN_VS>
0.6006137729

> <CNNaffinity_variance>
0.1789537668

$$$$
[H]c1c([H])c(-c2c(C([H])([H])C([H])([H])[H])c(C3=NC4(C(=O)N3[H])C([H])([H])C([H])([H])C4([H])[H])nn2-c2c([H])c([H])c(Cl)c([H])c2Cl)c([H])c([H])c1Cl


 32 36  0  0  0  0  0  0  0  0999 V2000
  -87.7879   32.5826   -1.7203 C   0  0  0  0  0  0  0  0  0  0  0  0
  -87.9523   31.3199   -1.2374 C   0  0  0  0  0  0  0  0  0  0  0  0
  -89.0245   30.8447   -1.9475 N   0  0  0  0  0  0  0  0  0  0  0  0
  -89.4830   31.7390   -2.8034 N   0  0  0  0  0  0  0  0  0  0  0  0
  -88.7522   32.8453   -2.7151 C   0  0  0  0  0  0  0  0  0  0  0  0
  -87.2328   30.5154   -0.2644 C   0  0  0  0  0  0  0  0  0  0  0  0
  -86.0780   30.9337    0.2542 N   0  0  0  0  0  0  0  0  0  0  0  0
  -85.5414   30.0068    1.1792 C   0  0  0  0  0  0  0  0  0  0  0  0
  -85.1463   30.5566    2.5312 C   0  0  0  0  0  0  0  0  0  0  0  0
  -83.7080   30.4504    2.1209 C   0  0  0  0  0  0  0  0  0  0  0  0
  -84.1126   29.5738    0.9596 C   0  0  0  0  0  0  0  0  0  0  0  0
  -86.5084   28.9023    1.2698 C   0  0  0  0  0  0  0  0  0  0  0  0
  -86.5009   27.8658    1.9696 O   0  0  0  0  0  0  0  0  0  0  0  0
  -87.5430   29.2832    0.3191 N   0  0  0  0  0  0  0  0  0  0  0  0
  -88.3624   28.6582    0.1727 H   0  0  0  0  0  0  0  0  0  0  0  0
  -90.5875   31.5119   -3.6801 C   0  0  0  0  0  0  0  0  0  0  0  0
  -91.2083   32.5216   -4.4107 C   0  0  0  0  0  0  0  0  0  0  0  0
  -92.2844   32.2650   -5.2212 C   0  0  0  0  0  0  0  0  0  0  0  0
  -92.7807   30.9960   -5.3339 C   0  0  0  0  0  0  0  0  0  0  0  0
  -94.1512   30.5982   -6.3511 Cl  0  0  0  0  0  0  0  0  0  0  0  0
  -92.1945   29.9761   -4.6280 C   0  0  0  0  0  0  0  0  0  0  0  0
  -91.0925   30.2472   -3.7990 C   0  0  0  0  0  0  0  0  0  0  0  0
  -90.4165   28.8984   -2.8883 Cl  0  0  0  0  0  0  0  0  0  0  0  0
  -88.7616   34.0209   -3.5620 C   0  0  0  0  0  0  0  0  0  0  0  0
  -88.0010   34.0807   -4.6989 C   0  0  0  0  0  0  0  0  0  0  0  0
  -87.9123   35.2495   -5.4442 C   0  0  0  0  0  0  0  0  0  0  0  0
  -88.5782   36.3982   -5.0835 C   0  0  0  0  0  0  0  0  0  0  0  0
  -88.4776   37.8792   -6.0130 Cl  0  0  0  0  0  0  0  0  0  0  0  0
  -89.3475   36.3513   -3.9402 C   0  0  0  0  0  0  0  0  0  0  0  0
  -89.4242   35.1817   -3.2092 C   0  0  0  0  0  0  0  0  0  0  0  0
  -85.4764   33.4017   -1.9640 C   0  0  0  0  0  0  0  0  0  0  0  0
  -86.7969   33.5526   -1.1505 C   0  0  0  0  0  0  0  0  0  0  0  0
 31 32  1  0  0  0
 32  1  1  0  0  0
  1  2  1  0  0  0
  2  6  1  0  0  0
  6  7  2  0  0  0
  7  8  1  0  0  0
  8  9  1  0  0  0
  9 10  1  0  0  0
 10 11  1  0  0  0
  8 12  1  0  0  0
 12 13  2  0  0  0
 12 14  1  0  0  0
  2  3  2  0  0  0
  3  4  1  0  0  0
  4 16  1  0  0  0
 16 17  2  0  0  0
 17 18  1  0  0  0
 18 19  2  0  0  0
 19 20  1  0  0  0
 19 21  1  0  0  0
 21 22  2  0  0  0
 22 23  1  0  0  0
  4  5  1  0  0  0
  5 24  1  0  0  0
 24 25  2  0  0  0
 25 26  1  0  0  0
 26 27  2  0  0  0
 27 28  1  0  0  0
 27 29  1  0  0  0
 29 30  2  0  0  0
  5  1  2  0  0  0
 30 24  1  0  0  0
 14  6  1  0  0  0
 22 16  1  0  0  0
 11  8  1  0  0  0
 14 15  1  0  0  0
M  END
> <minimizedAffinity>
-8.38028

> <CNNscore>
0.0874535218

> <CNNaffinity>
6.5969414711

> <CNN_VS>
0.5769257545

> <CNNaffinity_variance>
0.1835212409

$$$$
[H]c1nc(OC([H])([H])C([H])([H])Oc2nc([H])c(Br)c([H])n2)c(-c2c([H])c([H])c(C([H])([H])[H])c([H])c2[H])c(N([H])S(=O)(=O)c2c([H])c([H])c(Cl)c([H])c2[H])n1


 36 39  0  0  0  0  0  0  0  0999 V2000
  -89.9962   26.9297    0.6761 C   0  0  0  0  0  0  0  0  0  0  0  0
  -90.7472   27.2735   -0.3939 C   0  0  0  0  0  0  0  0  0  0  0  0
  -90.1891   27.0090   -1.7145 N   0  0  0  0  0  0  0  0  0  0  0  0
  -89.0199   26.4630   -1.8767 C   0  0  0  0  0  0  0  0  0  0  0  0
  -88.2670   26.1174   -0.8255 N   0  0  0  0  0  0  0  0  0  0  0  0
  -88.6887   26.3304    0.3608 C   0  0  0  0  0  0  0  0  0  0  0  0
  -89.8352   26.7543    6.3469 C   0  0  0  0  0  0  0  0  0  0  0  0
  -90.1398   26.8314    4.9039 C   0  0  0  0  0  0  0  0  0  0  0  0
  -90.3887   25.7713    4.1174 C   0  0  0  0  0  0  0  0  0  0  0  0
  -90.4939   25.7682    2.7579 C   0  0  0  0  0  0  0  0  0  0  0  0
  -90.3427   26.9890    2.0551 C   0  0  0  0  0  0  0  0  0  0  0  0
  -90.1202   28.1055    2.8471 C   0  0  0  0  0  0  0  0  0  0  0  0
  -90.0138   28.1114    4.2413 C   0  0  0  0  0  0  0  0  0  0  0  0
  -91.9612   27.9224   -0.3231 N   0  0  0  0  0  0  0  0  0  0  0  0
  -92.7169   27.7754    0.2769 H   0  0  0  0  0  0  0  0  0  0  0  0
  -92.2197   29.1753   -1.5769 S   0  0  0  0  0  0  0  0  0  0  0  0
  -92.2236   28.2899   -2.8803 O   0  0  0  0  0  0  0  0  0  0  0  0
  -93.5985   29.7193   -1.5001 O   0  0  0  0  0  0  0  0  0  0  0  0
  -90.9925   30.3169   -1.7514 C   0  0  0  0  0  0  0  0  0  0  0  0
  -90.1953   30.6451   -0.7259 C   0  0  0  0  0  0  0  0  0  0  0  0
  -89.2470   31.5816   -0.6507 C   0  0  0  0  0  0  0  0  0  0  0  0
  -89.0442   32.3545   -1.7734 C   0  0  0  0  0  0  0  0  0  0  0  0
  -87.8329   33.6344   -1.8050 Cl  0  0  0  0  0  0  0  0  0  0  0  0
  -89.8209   32.1607   -2.9491 C   0  0  0  0  0  0  0  0  0  0  0  0
  -90.7899   31.1269   -2.9124 C   0  0  0  0  0  0  0  0  0  0  0  0
  -88.0012   26.0918    1.5134 O   0  0  0  0  0  0  0  0  0  0  0  0
  -86.9182   26.3779    2.0844 C   0  0  0  0  0  0  0  0  0  0  0  0
  -85.6460   27.0564    1.9180 C   0  0  0  0  0  0  0  0  0  0  0  0
  -85.2706   28.1956    1.4590 O   0  0  0  0  0  0  0  0  0  0  0  0
  -84.9059   29.3250    1.0087 C   0  0  0  0  0  0  0  0  0  0  0  0
  -85.9314   30.2340    0.4756 N   0  0  0  0  0  0  0  0  0  0  0  0
  -85.6509   31.4519    0.0159 C   0  0  0  0  0  0  0  0  0  0  0  0
  -84.3266   31.9082    0.0314 C   0  0  0  0  0  0  0  0  0  0  0  0
  -83.9246   33.6292   -0.6692 Br  0  0  0  0  0  0  0  0  0  0  0  0
  -83.3479   31.0774    0.5096 C   0  0  0  0  0  0  0  0  0  0  0  0
  -83.6856   29.9259    0.9231 N   0  0  0  0  0  0  0  0  0  0  0  0
  7  8  1  0  0  0
  8  9  2  0  0  0
  9 10  1  0  0  0
 10 11  2  0  0  0
 11  1  1  0  0  0
  1  2  1  0  0  0
  2 14  1  0  0  0
 14 16  1  0  0  0
 16 17  2  0  0  0
 16 18  2  0  0  0
 16 19  1  0  0  0
 19 20  2  0  0  0
 20 21  1  0  0  0
 21 22  2  0  0  0
 22 23  1  0  0  0
 22 24  1  0  0  0
 24 25  2  0  0  0
  2  3  2  0  0  0
  3  4  1  0  0  0
  4  5  2  0  0  0
  5  6  1  0  0  0
  6 26  1  0  0  0
 26 27  1  0  0  0
 27 28  1  0  0  0
 28 29  1  0  0  0
 29 30  1  0  0  0
 30 31  2  0  0  0
 31 32  1  0  0  0
 32 33  2  0  0  0
 33 34  1  0  0  0
 33 35  1  0  0  0
 35 36  2  0  0  0
 11 12  1  0  0  0
 12 13  2  0  0  0
 13  8  1  0  0  0
  6  1  2  0  0  0
 36 30  1  0  0  0
 25 19  1  0  0  0
 14 15  1  0  0  0
M  END
> <minimizedAffinity>
-7.68965

> <CNNscore>
0.1996079236

> <CNNaffinity>
6.8499717712

> <CNN_VS>
1.3673086166

> <CNNaffinity_variance>
0.5645424128

$$$$
[H]c1nc(OC([H])([H])C([H])([H])Oc2nc([H])c(Br)c([H])n2)c(-c2c([H])c([H])c(C([H])([H])[H])c([H])c2[H])c(N([H])S(=O)(=O)c2c([H])c([H])c(Cl)c([H])c2[H])n1


 36 39  0  0  0  0  0  0  0  0999 V2000
  -87.1675   28.5671    0.1254 C   0  0  0  0  0  0  0  0  0  0  0  0
  -87.2806   27.2222    0.1997 C   0  0  0  0  0  0  0  0  0  0  0  0
  -86.4382   26.5336    1.1702 N   0  0  0  0  0  0  0  0  0  0  0  0
  -85.6081   27.1699    1.9430 C   0  0  0  0  0  0  0  0  0  0  0  0
  -85.4873   28.5014    1.8796 N   0  0  0  0  0  0  0  0  0  0  0  0
  -86.1865   29.1679    1.0446 C   0  0  0  0  0  0  0  0  0  0  0  0
  -90.9290   30.8341   -3.4700 C   0  0  0  0  0  0  0  0  0  0  0  0
  -89.8503   30.4910   -2.5213 C   0  0  0  0  0  0  0  0  0  0  0  0
  -88.6342   30.0439   -2.8756 C   0  0  0  0  0  0  0  0  0  0  0  0
  -87.6735   29.5434   -2.0475 C   0  0  0  0  0  0  0  0  0  0  0  0
  -87.9334   29.4768   -0.6564 C   0  0  0  0  0  0  0  0  0  0  0  0
  -89.1692   29.9656   -0.2600 C   0  0  0  0  0  0  0  0  0  0  0  0
  -90.1551   30.4810   -1.1071 C   0  0  0  0  0  0  0  0  0  0  0  0
  -88.0750   26.4558   -0.6258 N   0  0  0  0  0  0  0  0  0  0  0  0
  -87.9378   26.1849   -1.5535 H   0  0  0  0  0  0  0  0  0  0  0  0
  -89.6349   25.9453    0.0916 S   0  0  0  0  0  0  0  0  0  0  0  0
  -90.6207   26.9673   -0.5916 O   0  0  0  0  0  0  0  0  0  0  0  0
  -90.0510   24.6239   -0.4409 O   0  0  0  0  0  0  0  0  0  0  0  0
  -89.7865   26.1421    1.7583 C   0  0  0  0  0  0  0  0  0  0  0  0
  -90.0240   27.3446    2.2991 C   0  0  0  0  0  0  0  0  0  0  0  0
  -90.0790   27.7045    3.5834 C   0  0  0  0  0  0  0  0  0  0  0  0
  -89.8448   26.7187    4.5174 C   0  0  0  0  0  0  0  0  0  0  0  0
  -89.8744   27.0607    6.2461 Cl  0  0  0  0  0  0  0  0  0  0  0  0
  -89.5504   25.3850    4.1201 C   0  0  0  0  0  0  0  0  0  0  0  0
  -89.5319   25.1218    2.7275 C   0  0  0  0  0  0  0  0  0  0  0  0
  -86.1152   30.5118    0.8282 O   0  0  0  0  0  0  0  0  0  0  0  0
  -85.3597   31.3844    0.3295 C   0  0  0  0  0  0  0  0  0  0  0  0
  -85.3317   32.5977   -0.4666 C   0  0  0  0  0  0  0  0  0  0  0  0
  -86.1067   33.1390   -1.3358 O   0  0  0  0  0  0  0  0  0  0  0  0
  -86.8697   33.6813   -2.1932 C   0  0  0  0  0  0  0  0  0  0  0  0
  -88.3241   33.5933   -1.9959 N   0  0  0  0  0  0  0  0  0  0  0  0
  -89.2022   34.1612   -2.8204 C   0  0  0  0  0  0  0  0  0  0  0  0
  -88.7422   34.8794   -3.9316 C   0  0  0  0  0  0  0  0  0  0  0  0
  -90.0004   35.6484   -5.1315 Br  0  0  0  0  0  0  0  0  0  0  0  0
  -87.3923   34.9663   -4.1484 C   0  0  0  0  0  0  0  0  0  0  0  0
  -86.6131   34.3925   -3.3272 N   0  0  0  0  0  0  0  0  0  0  0  0
  7  8  1  0  0  0
  8  9  2  0  0  0
  9 10  1  0  0  0
 10 11  2  0  0  0
 11  1  1  0  0  0
  1  2  1  0  0  0
  2 14  1  0  0  0
 14 16  1  0  0  0
 16 17  2  0  0  0
 16 18  2  0  0  0
 16 19  1  0  0  0
 19 20  2  0  0  0
 20 21  1  0  0  0
 21 22  2  0  0  0
 22 23  1  0  0  0
 22 24  1  0  0  0
 24 25  2  0  0  0
  2  3  2  0  0  0
  3  4  1  0  0  0
  4  5  2  0  0  0
  5  6  1  0  0  0
  6 26  1  0  0  0
 26 27  1  0  0  0
 27 28  1  0  0  0
 28 29  1  0  0  0
 29 30  1  0  0  0
 30 31  2  0  0  0
 31 32  1  0  0  0
 32 33  2  0  0  0
 33 34  1  0  0  0
 33 35  1  0  0  0
 35 36  2  0  0  0
 11 12  1  0  0  0
 12 13  2  0  0  0
 13  8  1  0  0  0
  6  1  2  0  0  0
 36 30  1  0  0  0
 25 19  1  0  0  0
 14 15  1  0  0  0
M  END
> <minimizedAffinity>
-7.77962

> <CNNscore>
0.1696180403

> <CNNaffinity>
6.8444352150

> <CNN_VS>
1.1609396935

> <CNNaffinity_variance>
0.3526735902

$$$$
[H]c1nc(OC([H])([H])C([H])([H])Oc2nc([H])c(Br)c([H])n2)c(-c2c([H])c([H])c(C([H])([H])[H])c([H])c2[H])c(N([H])S(=O)(=O)c2c([H])c([H])c(Cl)c([H])c2[H])n1


 36 39  0  0  0  0  0  0  0  0999 V2000
  -86.4041   30.8018   -0.4191 C   0  0  0  0  0  0  0  0  0  0  0  0
  -85.3964   30.1271    0.1779 C   0  0  0  0  0  0  0  0  0  0  0  0
  -84.2884   30.9125    0.7080 N   0  0  0  0  0  0  0  0  0  0  0  0
  -84.2543   32.2097    0.6219 C   0  0  0  0  0  0  0  0  0  0  0  0
  -85.2460   32.8894    0.0339 N   0  0  0  0  0  0  0  0  0  0  0  0
  -86.2429   32.2648   -0.4625 C   0  0  0  0  0  0  0  0  0  0  0  0
  -90.6605   27.3741   -1.9516 C   0  0  0  0  0  0  0  0  0  0  0  0
  -89.6902   28.4544   -1.6824 C   0  0  0  0  0  0  0  0  0  0  0  0
  -88.6253   28.7347   -2.4518 C   0  0  0  0  0  0  0  0  0  0  0  0
  -87.6060   29.5911   -2.1570 C   0  0  0  0  0  0  0  0  0  0  0  0
  -87.6321   30.2908   -0.9255 C   0  0  0  0  0  0  0  0  0  0  0  0
  -88.7397   30.0460   -0.1277 C   0  0  0  0  0  0  0  0  0  0  0  0
  -89.7870   29.1699   -0.4287 C   0  0  0  0  0  0  0  0  0  0  0  0
  -85.3083   28.7534    0.2507 N   0  0  0  0  0  0  0  0  0  0  0  0
  -84.9975   28.1087   -0.4130 H   0  0  0  0  0  0  0  0  0  0  0  0
  -85.9343   28.0380    1.7690 S   0  0  0  0  0  0  0  0  0  0  0  0
  -84.7503   27.0695    2.1470 O   0  0  0  0  0  0  0  0  0  0  0  0
  -85.9454   29.0451    2.8592 O   0  0  0  0  0  0  0  0  0  0  0  0
  -87.3251   27.0970    1.6293 C   0  0  0  0  0  0  0  0  0  0  0  0
  -87.4934   26.2500    0.6050 C   0  0  0  0  0  0  0  0  0  0  0  0
  -88.5530   25.5054    0.2814 C   0  0  0  0  0  0  0  0  0  0  0  0
  -89.6617   25.6134    1.0927 C   0  0  0  0  0  0  0  0  0  0  0  0
  -91.1319   24.6961    0.7715 Cl  0  0  0  0  0  0  0  0  0  0  0  0
  -89.6687   26.4873    2.2149 C   0  0  0  0  0  0  0  0  0  0  0  0
  -88.4799   27.2177    2.4643 C   0  0  0  0  0  0  0  0  0  0  0  0
  -87.2826   32.8229   -1.1449 O   0  0  0  0  0  0  0  0  0  0  0  0
  -87.5280   33.4845   -2.1854 C   0  0  0  0  0  0  0  0  0  0  0  0
  -87.2633   33.5750   -3.6096 C   0  0  0  0  0  0  0  0  0  0  0  0
  -87.5975   34.3805   -4.5523 O   0  0  0  0  0  0  0  0  0  0  0  0
  -87.9340   35.1717   -5.4862 C   0  0  0  0  0  0  0  0  0  0  0  0
  -89.3365   35.1825   -5.9277 N   0  0  0  0  0  0  0  0  0  0  0  0
  -89.7914   36.0023   -6.8735 C   0  0  0  0  0  0  0  0  0  0  0  0
  -88.9123   36.9029   -7.4886 C   0  0  0  0  0  0  0  0  0  0  0  0
  -89.5561   38.0384   -8.8708 Br  0  0  0  0  0  0  0  0  0  0  0  0
  -87.5965   36.9055   -7.1071 C   0  0  0  0  0  0  0  0  0  0  0  0
  -87.2300   36.0902   -6.2061 N   0  0  0  0  0  0  0  0  0  0  0  0
  7  8  1  0  0  0
  8  9  2  0  0  0
  9 10  1  0  0  0
 10 11  2  0  0  0
 11  1  1  0  0  0
  1  2  1  0  0  0
  2 14  1  0  0  0
 14 16  1  0  0  0
 16 17  2  0  0  0
 16 18  2  0  0  0
 16 19  1  0  0  0
 19 20  2  0  0  0
 20 21  1  0  0  0
 21 22  2  0  0  0
 22 23  1  0  0  0
 22 24  1  0  0  0
 24 25  2  0  0  0
  2  3  2  0  0  0
  3  4  1  0  0  0
  4  5  2  0  0  0
  5  6  1  0  0  0
  6 26  1  0  0  0
 26 27  1  0  0  0
 27 28  1  0  0  0
 28 29  1  0  0  0
 29 30  1  0  0  0
 30 31  2  0  0  0
 31 32  1  0  0  0
 32 33  2  0  0  0
 33 34  1  0  0  0
 33 35  1  0  0  0
 35 36  2  0  0  0
 11 12  1  0  0  0
 12 13  2  0  0  0
 13  8  1  0  0  0
  6  1  2  0  0  0
 36 30  1  0  0  0
 25 19  1  0  0  0
 14 15  1  0  0  0
M  END
> <minimizedAffinity>
-7.92526

> <CNNscore>
0.1568611711

> <CNNaffinity>
6.7832574844

> <CNN_VS>
1.0640296936

> <CNNaffinity_variance>
0.1740565747

$$$$
[H]c1nc(OC([H])([H])C([H])([H])Oc2nc([H])c(Br)c([H])n2)c(-c2c([H])c([H])c(C([H])([H])[H])c([H])c2[H])c(N([H])S(=O)(=O)c2c([H])c([H])c(Cl)c([H])c2[H])n1


 36 39  0  0  0  0  0  0  0  0999 V2000
  -88.0209   32.6517   -2.6731 C   0  0  0  0  0  0  0  0  0  0  0  0
  -86.8515   33.3284   -2.6314 C   0  0  0  0  0  0  0  0  0  0  0  0
  -86.8768   34.7309   -3.0286 N   0  0  0  0  0  0  0  0  0  0  0  0
  -87.9700   35.3247   -3.4079 C   0  0  0  0  0  0  0  0  0  0  0  0
  -89.1342   34.6659   -3.4527 N   0  0  0  0  0  0  0  0  0  0  0  0
  -89.1835   33.4318   -3.1290 C   0  0  0  0  0  0  0  0  0  0  0  0
  -87.5390   27.4132   -0.5421 C   0  0  0  0  0  0  0  0  0  0  0  0
  -87.9044   28.6945   -1.1791 C   0  0  0  0  0  0  0  0  0  0  0  0
  -87.6096   29.0299   -2.4460 C   0  0  0  0  0  0  0  0  0  0  0  0
  -87.7590   30.2560   -3.0235 C   0  0  0  0  0  0  0  0  0  0  0  0
  -88.2867   31.3191   -2.2500 C   0  0  0  0  0  0  0  0  0  0  0  0
  -88.6327   30.9901   -0.9479 C   0  0  0  0  0  0  0  0  0  0  0  0
  -88.4822   29.7332   -0.3542 C   0  0  0  0  0  0  0  0  0  0  0  0
  -85.6326   32.7677   -2.3157 N   0  0  0  0  0  0  0  0  0  0  0  0
  -85.0298   32.2285   -2.8623 H   0  0  0  0  0  0  0  0  0  0  0  0
  -85.1140   33.0000   -0.6170 S   0  0  0  0  0  0  0  0  0  0  0  0
  -83.8789   33.9581   -0.8156 O   0  0  0  0  0  0  0  0  0  0  0  0
  -86.1002   33.8237    0.1258 O   0  0  0  0  0  0  0  0  0  0  0  0
  -84.5576   31.6264    0.1850 C   0  0  0  0  0  0  0  0  0  0  0  0
  -85.4075   30.7262    0.6969 C   0  0  0  0  0  0  0  0  0  0  0  0
  -85.1571   29.6434    1.4364 C   0  0  0  0  0  0  0  0  0  0  0  0
  -83.8388   29.3954    1.7518 C   0  0  0  0  0  0  0  0  0  0  0  0
  -83.3707   28.0076    2.7321 Cl  0  0  0  0  0  0  0  0  0  0  0  0
  -82.8021   30.2643    1.3120 C   0  0  0  0  0  0  0  0  0  0  0  0
  -83.1906   31.3754    0.5223 C   0  0  0  0  0  0  0  0  0  0  0  0
  -90.2819   32.6270   -3.1932 O   0  0  0  0  0  0  0  0  0  0  0  0
  -90.9005   31.8767   -3.9901 C   0  0  0  0  0  0  0  0  0  0  0  0
  -91.3398   30.5122   -4.2175 C   0  0  0  0  0  0  0  0  0  0  0  0
  -91.2129   29.3953   -3.5964 O   0  0  0  0  0  0  0  0  0  0  0  0
  -91.0871   28.2953   -2.9755 C   0  0  0  0  0  0  0  0  0  0  0  0
  -91.6076   28.1986   -1.6037 N   0  0  0  0  0  0  0  0  0  0  0  0
  -91.5550   27.0776   -0.8868 C   0  0  0  0  0  0  0  0  0  0  0  0
  -90.9827   25.9270   -1.4444 C   0  0  0  0  0  0  0  0  0  0  0  0
  -90.8674   24.3424   -0.4004 Br  0  0  0  0  0  0  0  0  0  0  0  0
  -90.4768   25.9916   -2.7160 C   0  0  0  0  0  0  0  0  0  0  0  0
  -90.5520   27.0953   -3.3379 N   0  0  0  0  0  0  0  0  0  0  0  0
  7  8  1  0  0  0
  8  9  2  0  0  0
  9 10  1  0  0  0
 10 11  2  0  0  0
 11  1  1  0  0  0
  1  2  1  0  0  0
  2 14  1  0  0  0
 14 16  1  0  0  0
 16 17  2  0  0  0
 16 18  2  0  0  0
 16 19  1  0  0  0
 19 20  2  0  0  0
 20 21  1  0  0  0
 21 22  2  0  0  0
 22 23  1  0  0  0
 22 24  1  0  0  0
 24 25  2  0  0  0
  2  3  2  0  0  0
  3  4  1  0  0  0
  4  5  2  0  0  0
  5  6  1  0  0  0
  6 26  1  0  0  0
 26 27  1  0  0  0
 27 28  1  0  0  0
 28 29  1  0  0  0
 29 30  1  0  0  0
 30 31  2  0  0  0
 31 32  1  0  0  0
 32 33  2  0  0  0
 33 34  1  0  0  0
 33 35  1  0  0  0
 35 36  2  0  0  0
 11 12  1  0  0  0
 12 13  2  0  0  0
 13  8  1  0  0  0
  6  1  2  0  0  0
 36 30  1  0  0  0
 25 19  1  0  0  0
 14 15  1  0  0  0
M  END
> <minimizedAffinity>
-8.56809

> <CNNscore>
0.1532612145

> <CNNaffinity>
6.6449050903

> <CNN_VS>
1.0184062719

> <CNNaffinity_variance>
0.8904649019

$$$$
[H]c1nc(OC([H])([H])C([H])([H])Oc2nc([H])c(Br)c([H])n2)c(-c2c([H])c([H])c(C([H])([H])[H])c([H])c2[H])c(N([H])S(=O)(=O)c2c([H])c([H])c(Cl)c([H])c2[H])n1


 36 39  0  0  0  0  0  0  0  0999 V2000
  -88.0161   32.6003   -2.6158 C   0  0  0  0  0  0  0  0  0  0  0  0
  -86.8560   33.2928   -2.5770 C   0  0  0  0  0  0  0  0  0  0  0  0
  -86.8923   34.6823   -3.0170 N   0  0  0  0  0  0  0  0  0  0  0  0
  -87.9867   35.2503   -3.4307 C   0  0  0  0  0  0  0  0  0  0  0  0
  -89.1418   34.5756   -3.4732 N   0  0  0  0  0  0  0  0  0  0  0  0
  -89.1810   33.3513   -3.1130 C   0  0  0  0  0  0  0  0  0  0  0  0
  -87.4482   27.3455   -0.5470 C   0  0  0  0  0  0  0  0  0  0  0  0
  -87.8475   28.6400   -1.1353 C   0  0  0  0  0  0  0  0  0  0  0  0
  -87.7097   28.9657   -2.4312 C   0  0  0  0  0  0  0  0  0  0  0  0
  -87.8893   30.1970   -2.9887 C   0  0  0  0  0  0  0  0  0  0  0  0
  -88.2720   31.2778   -2.1565 C   0  0  0  0  0  0  0  0  0  0  0  0
  -88.4557   30.9602   -0.8191 C   0  0  0  0  0  0  0  0  0  0  0  0
  -88.2740   29.6980   -0.2456 C   0  0  0  0  0  0  0  0  0  0  0  0
  -85.6352   32.7576   -2.2258 N   0  0  0  0  0  0  0  0  0  0  0  0
  -85.0438   32.1633   -2.7257 H   0  0  0  0  0  0  0  0  0  0  0  0
  -85.0893   33.1520   -0.5660 S   0  0  0  0  0  0  0  0  0  0  0  0
  -83.8507   34.0754   -0.8760 O   0  0  0  0  0  0  0  0  0  0  0  0
  -86.0584   34.0532    0.1060 O   0  0  0  0  0  0  0  0  0  0  0  0
  -84.5303   31.8595    0.3596 C   0  0  0  0  0  0  0  0  0  0  0  0
  -83.2234   31.5770    0.4444 C   0  0  0  0  0  0  0  0  0  0  0  0
  -82.6110   30.5525    1.0421 C   0  0  0  0  0  0  0  0  0  0  0  0
  -83.4159   29.6195    1.6591 C   0  0  0  0  0  0  0  0  0  0  0  0
  -82.7375   28.2116    2.4740 Cl  0  0  0  0  0  0  0  0  0  0  0  0
  -84.8324   29.7475    1.6460 C   0  0  0  0  0  0  0  0  0  0  0  0
  -85.3659   30.8849    0.9899 C   0  0  0  0  0  0  0  0  0  0  0  0
  -90.2682   32.5310   -3.1694 O   0  0  0  0  0  0  0  0  0  0  0  0
  -91.0730   32.0275   -3.9937 C   0  0  0  0  0  0  0  0  0  0  0  0
  -91.3862   30.8262   -4.7457 C   0  0  0  0  0  0  0  0  0  0  0  0
  -91.8625   29.6679   -4.4617 O   0  0  0  0  0  0  0  0  0  0  0  0
  -92.3403   28.5264   -4.1790 C   0  0  0  0  0  0  0  0  0  0  0  0
  -93.6976   28.4513   -3.6184 N   0  0  0  0  0  0  0  0  0  0  0  0
  -94.2970   27.2989   -3.3250 C   0  0  0  0  0  0  0  0  0  0  0  0
  -93.6231   26.0921   -3.5524 C   0  0  0  0  0  0  0  0  0  0  0  0
  -94.4646   24.4518   -3.0882 Br  0  0  0  0  0  0  0  0  0  0  0  0
  -92.3516   26.1320   -4.0610 C   0  0  0  0  0  0  0  0  0  0  0  0
  -91.8382   27.2659   -4.3085 N   0  0  0  0  0  0  0  0  0  0  0  0
  7  8  1  0  0  0
  8  9  2  0  0  0
  9 10  1  0  0  0
 10 11  2  0  0  0
 11  1  1  0  0  0
  1  2  1  0  0  0
  2 14  1  0  0  0
 14 16  1  0  0  0
 16 17  2  0  0  0
 16 18  2  0  0  0
 16 19  1  0  0  0
 19 20  2  0  0  0
 20 21  1  0  0  0
 21 22  2  0  0  0
 22 23  1  0  0  0
 22 24  1  0  0  0
 24 25  2  0  0  0
  2  3  2  0  0  0
  3  4  1  0  0  0
  4  5  2  0  0  0
  5  6  1  0  0  0
  6 26  1  0  0  0
 26 27  1  0  0  0
 27 28  1  0  0  0
 28 29  1  0  0  0
 29 30  1  0  0  0
 30 31  2  0  0  0
 31 32  1  0  0  0
 32 33  2  0  0  0
 33 34  1  0  0  0
 33 35  1  0  0  0
 35 36  2  0  0  0
 11 12  1  0  0  0
 12 13  2  0  0  0
 13  8  1  0  0  0
  6  1  2  0  0  0
 36 30  1  0  0  0
 25 19  1  0  0  0
 14 15  1  0  0  0
M  END
> <minimizedAffinity>
-8.37960

> <CNNscore>
0.1529681832

> <CNNaffinity>
6.5978012085

> <CNN_VS>
1.0092536211

> <CNNaffinity_variance>
0.5108796954

$$$$
[H]c1nc(OC([H])([H])C([H])([H])Oc2nc([H])c(Br)c([H])n2)c(-c2c([H])c([H])c(C([H])([H])[H])c([H])c2[H])c(N([H])S(=O)(=O)c2c([H])c([H])c(Cl)c([H])c2[H])n1


 36 39  0  0  0  0  0  0  0  0999 V2000
  -87.9113   27.7823    0.6581 C   0  0  0  0  0  0  0  0  0  0  0  0
  -87.1221   27.0261    1.4533 C   0  0  0  0  0  0  0  0  0  0  0  0
  -87.7791   26.2249    2.4789 N   0  0  0  0  0  0  0  0  0  0  0  0
  -89.0701   26.2226    2.6359 C   0  0  0  0  0  0  0  0  0  0  0  0
  -89.8624   26.9663    1.8546 N   0  0  0  0  0  0  0  0  0  0  0  0
  -89.3537   27.7011    0.9427 C   0  0  0  0  0  0  0  0  0  0  0  0
  -88.0055   30.8957   -4.0867 C   0  0  0  0  0  0  0  0  0  0  0  0
  -87.7160   30.0938   -2.8808 C   0  0  0  0  0  0  0  0  0  0  0  0
  -87.6473   28.7525   -2.8530 C   0  0  0  0  0  0  0  0  0  0  0  0
  -87.5659   27.9605   -1.7460 C   0  0  0  0  0  0  0  0  0  0  0  0
  -87.5374   28.5694   -0.4672 C   0  0  0  0  0  0  0  0  0  0  0  0
  -87.5713   29.9558   -0.4696 C   0  0  0  0  0  0  0  0  0  0  0  0
  -87.6527   30.7700   -1.6034 C   0  0  0  0  0  0  0  0  0  0  0  0
  -85.7443   27.0198    1.4119 N   0  0  0  0  0  0  0  0  0  0  0  0
  -85.1326   26.3922    0.9822 H   0  0  0  0  0  0  0  0  0  0  0  0
  -84.9565   28.3207    2.3583 S   0  0  0  0  0  0  0  0  0  0  0  0
  -86.1041   28.6788    3.3769 O   0  0  0  0  0  0  0  0  0  0  0  0
  -83.8718   27.7692    3.2083 O   0  0  0  0  0  0  0  0  0  0  0  0
  -84.5789   29.7297    1.5146 C   0  0  0  0  0  0  0  0  0  0  0  0
  -84.9705   30.9324    1.9563 C   0  0  0  0  0  0  0  0  0  0  0  0
  -84.8489   32.1311    1.3818 C   0  0  0  0  0  0  0  0  0  0  0  0
  -84.2504   32.1698    0.1411 C   0  0  0  0  0  0  0  0  0  0  0  0
  -84.0388   33.6851   -0.7337 Cl  0  0  0  0  0  0  0  0  0  0  0  0
  -83.7951   30.9804   -0.4924 C   0  0  0  0  0  0  0  0  0  0  0  0
  -83.9685   29.7686    0.2219 C   0  0  0  0  0  0  0  0  0  0  0  0
  -90.0334   28.5546    0.1255 O   0  0  0  0  0  0  0  0  0  0  0  0
  -90.9522   28.5648   -0.7326 C   0  0  0  0  0  0  0  0  0  0  0  0
  -92.1318   29.2811   -1.1820 C   0  0  0  0  0  0  0  0  0  0  0  0
  -92.6416   29.5787   -2.3226 O   0  0  0  0  0  0  0  0  0  0  0  0
  -93.1527   29.8707   -3.4472 C   0  0  0  0  0  0  0  0  0  0  0  0
  -94.6050   29.7191   -3.6203 N   0  0  0  0  0  0  0  0  0  0  0  0
  -95.2363   30.0345   -4.7497 C   0  0  0  0  0  0  0  0  0  0  0  0
  -94.5040   30.5350   -5.8340 C   0  0  0  0  0  0  0  0  0  0  0  0
  -95.4029   30.9395   -7.4595 Br  0  0  0  0  0  0  0  0  0  0  0  0
  -93.1471   30.6738   -5.7060 C   0  0  0  0  0  0  0  0  0  0  0  0
  -92.6101   30.3446   -4.6042 N   0  0  0  0  0  0  0  0  0  0  0  0
  7  8  1  0  0  0
  8  9  2  0  0  0
  9 10  1  0  0  0
 10 11  2  0  0  0
 11  1  1  0  0  0
  1  2  1  0  0  0
  2 14  1  0  0  0
 14 16  1  0  0  0
 16 17  2  0  0  0
 16 18  2  0  0  0
 16 19  1  0  0  0
 19 20  2  0  0  0
 20 21  1  0  0  0
 21 22  2  0  0  0
 22 23  1  0  0  0
 22 24  1  0  0  0
 24 25  2  0  0  0
  2  3  2  0  0  0
  3  4  1  0  0  0
  4  5  2  0  0  0
  5  6  1  0  0  0
  6 26  1  0  0  0
 26 27  1  0  0  0
 27 28  1  0  0  0
 28 29  1  0  0  0
 29 30  1  0  0  0
 30 31  2  0  0  0
 31 32  1  0  0  0
 32 33  2  0  0  0
 33 34  1  0  0  0
 33 35  1  0  0  0
 35 36  2  0  0  0
 11 12  1  0  0  0
 12 13  2  0  0  0
 13  8  1  0  0  0
  6  1  2  0  0  0
 36 30  1  0  0  0
 25 19  1  0  0  0
 14 15  1  0  0  0
M  END
> <minimizedAffinity>
-7.07685

> <CNNscore>
0.1483173221

> <CNNaffinity>
6.7918357849

> <CNN_VS>
1.0073468685

> <CNNaffinity_variance>
0.1812934875

$$$$
[H]c1nc(OC([H])([H])C([H])([H])Oc2nc([H])c(Br)c([H])n2)c(-c2c([H])c([H])c(C([H])([H])[H])c([H])c2[H])c(N([H])S(=O)(=O)c2c([H])c([H])c(Cl)c([H])c2[H])n1


 36 39  0  0  0  0  0  0  0  0999 V2000
  -89.0752   27.7840   -0.3623 C   0  0  0  0  0  0  0  0  0  0  0  0
  -87.7426   27.6207   -0.5193 C   0  0  0  0  0  0  0  0  0  0  0  0
  -87.1440   28.1489   -1.7392 N   0  0  0  0  0  0  0  0  0  0  0  0
  -87.8462   28.7573   -2.6492 C   0  0  0  0  0  0  0  0  0  0  0  0
  -89.1662   28.9259   -2.5052 N   0  0  0  0  0  0  0  0  0  0  0  0
  -89.7585   28.4786   -1.4663 C   0  0  0  0  0  0  0  0  0  0  0  0
  -90.8451   26.1893    4.7893 C   0  0  0  0  0  0  0  0  0  0  0  0
  -90.6433   26.5988    3.3848 C   0  0  0  0  0  0  0  0  0  0  0  0
  -90.3991   25.7537    2.3697 C   0  0  0  0  0  0  0  0  0  0  0  0
  -90.0274   26.0856    1.1004 C   0  0  0  0  0  0  0  0  0  0  0  0
  -89.8796   27.4539    0.7644 C   0  0  0  0  0  0  0  0  0  0  0  0
  -90.1608   28.3490    1.7856 C   0  0  0  0  0  0  0  0  0  0  0  0
  -90.5439   28.0111    3.0872 C   0  0  0  0  0  0  0  0  0  0  0  0
  -86.9303   26.9269    0.3517 N   0  0  0  0  0  0  0  0  0  0  0  0
  -86.8324   25.9651    0.4869 H   0  0  0  0  0  0  0  0  0  0  0  0
  -85.9640   27.9514    1.4586 S   0  0  0  0  0  0  0  0  0  0  0  0
  -87.0304   28.2633    2.5759 O   0  0  0  0  0  0  0  0  0  0  0  0
  -84.9306   27.1444    2.1542 O   0  0  0  0  0  0  0  0  0  0  0  0
  -85.4423   29.4290    0.8387 C   0  0  0  0  0  0  0  0  0  0  0  0
  -84.1386   29.7169    0.7280 C   0  0  0  0  0  0  0  0  0  0  0  0
  -83.5466   30.8539    0.3554 C   0  0  0  0  0  0  0  0  0  0  0  0
  -84.3714   31.9142    0.0479 C   0  0  0  0  0  0  0  0  0  0  0  0
  -83.7201   33.4757   -0.4457 Cl  0  0  0  0  0  0  0  0  0  0  0  0
  -85.7860   31.7942    0.1353 C   0  0  0  0  0  0  0  0  0  0  0  0
  -86.2977   30.5330    0.5308 C   0  0  0  0  0  0  0  0  0  0  0  0
  -91.0994   28.5208   -1.2245 O   0  0  0  0  0  0  0  0  0  0  0  0
  -92.1828   28.0265   -1.6277 C   0  0  0  0  0  0  0  0  0  0  0  0
  -92.8480   26.7863   -1.9827 C   0  0  0  0  0  0  0  0  0  0  0  0
  -92.8826   25.5967   -1.5001 O   0  0  0  0  0  0  0  0  0  0  0  0
  -92.9157   24.4179   -1.0305 C   0  0  0  0  0  0  0  0  0  0  0  0
  -94.0427   24.0363   -0.1667 N   0  0  0  0  0  0  0  0  0  0  0  0
  -94.1832   22.8137    0.3423 C   0  0  0  0  0  0  0  0  0  0  0  0
  -93.2266   21.8315    0.0549 C   0  0  0  0  0  0  0  0  0  0  0  0
  -93.4066   20.1013    0.8218 Br  0  0  0  0  0  0  0  0  0  0  0  0
  -92.1581   22.1625   -0.7361 C   0  0  0  0  0  0  0  0  0  0  0  0
  -92.0826   23.3494   -1.1791 N   0  0  0  0  0  0  0  0  0  0  0  0
  7  8  1  0  0  0
  8  9  2  0  0  0
  9 10  1  0  0  0
 10 11  2  0  0  0
 11  1  1  0  0  0
  1  2  1  0  0  0
  2 14  1  0  0  0
 14 16  1  0  0  0
 16 17  2  0  0  0
 16 18  2  0  0  0
 16 19  1  0  0  0
 19 20  2  0  0  0
 20 21  1  0  0  0
 21 22  2  0  0  0
 22 23  1  0  0  0
 22 24  1  0  0  0
 24 25  2  0  0  0
  2  3  2  0  0  0
  3  4  1  0  0  0
  4  5  2  0  0  0
  5  6  1  0  0  0
  6 26  1  0  0  0
 26 27  1  0  0  0
 27 28  1  0  0  0
 28 29  1  0  0  0
 29 30  1  0  0  0
 30 31  2  0  0  0
 31 32  1  0  0  0
 32 33  2  0  0  0
 33 34  1  0  0  0
 33 35  1  0  0  0
 35 36  2  0  0  0
 11 12  1  0  0  0
 12 13  2  0  0  0
 13  8  1  0  0  0
  6  1  2  0  0  0
 36 30  1  0  0  0
 25 19  1  0  0  0
 14 15  1  0  0  0
M  END
> <minimizedAffinity>
-7.31891

> <CNNscore>
0.1229563653

> <CNNaffinity>
6.6201896667

> <CNN_VS>
0.8139944673

> <CNNaffinity_variance>
0.3246214986

$$$$
[H]c1nc(OC([H])([H])C([H])([H])Oc2nc([H])c(Br)c([H])n2)c(-c2c([H])c([H])c(C([H])([H])[H])c([H])c2[H])c(N([H])S(=O)(=O)c2c([H])c([H])c(Cl)c([H])c2[H])n1


 36 39  0  0  0  0  0  0  0  0999 V2000
  -87.7476   31.7058   -1.9172 C   0  0  0  0  0  0  0  0  0  0  0  0
  -86.9734   32.8004   -2.0887 C   0  0  0  0  0  0  0  0  0  0  0  0
  -87.6420   34.0387   -2.4695 N   0  0  0  0  0  0  0  0  0  0  0  0
  -88.9296   34.1077   -2.6393 C   0  0  0  0  0  0  0  0  0  0  0  0
  -89.7072   33.0313   -2.4719 N   0  0  0  0  0  0  0  0  0  0  0  0
  -89.1872   31.9107   -2.1491 C   0  0  0  0  0  0  0  0  0  0  0  0
  -87.8079   26.3880    0.0656 C   0  0  0  0  0  0  0  0  0  0  0  0
  -87.5280   27.7544   -0.4197 C   0  0  0  0  0  0  0  0  0  0  0  0
  -87.5215   28.8535    0.3525 C   0  0  0  0  0  0  0  0  0  0  0  0
  -87.4512   30.1486   -0.0685 C   0  0  0  0  0  0  0  0  0  0  0  0
  -87.3639   30.4148   -1.4572 C   0  0  0  0  0  0  0  0  0  0  0  0
  -87.3329   29.2951   -2.2749 C   0  0  0  0  0  0  0  0  0  0  0  0
  -87.4029   27.9664   -1.8453 C   0  0  0  0  0  0  0  0  0  0  0  0
  -85.5976   32.8081   -2.0043 N   0  0  0  0  0  0  0  0  0  0  0  0
  -84.9266   32.5875   -2.6780 H   0  0  0  0  0  0  0  0  0  0  0  0
  -84.9445   33.2093   -0.3852 S   0  0  0  0  0  0  0  0  0  0  0  0
  -83.6130   33.9528   -0.7818 O   0  0  0  0  0  0  0  0  0  0  0  0
  -85.7677   34.2570    0.2687 O   0  0  0  0  0  0  0  0  0  0  0  0
  -84.5166   31.9024    0.5887 C   0  0  0  0  0  0  0  0  0  0  0  0
  -83.6362   30.9823    0.1727 C   0  0  0  0  0  0  0  0  0  0  0  0
  -83.2528   29.8453    0.7576 C   0  0  0  0  0  0  0  0  0  0  0  0
  -83.8444   29.5341    1.9627 C   0  0  0  0  0  0  0  0  0  0  0  0
  -83.4389   28.0571    2.8346 Cl  0  0  0  0  0  0  0  0  0  0  0  0
  -84.8232   30.3877    2.5428 C   0  0  0  0  0  0  0  0  0  0  0  0
  -85.1390   31.5735    1.8335 C   0  0  0  0  0  0  0  0  0  0  0  0
  -89.8489   30.7267   -2.0132 O   0  0  0  0  0  0  0  0  0  0  0  0
  -90.9321   30.2542   -1.5842 C   0  0  0  0  0  0  0  0  0  0  0  0
  -91.5867   29.0406   -1.1312 C   0  0  0  0  0  0  0  0  0  0  0  0
  -91.3610   28.1664   -0.2178 O   0  0  0  0  0  0  0  0  0  0  0  0
  -91.1331   27.2983    0.6798 C   0  0  0  0  0  0  0  0  0  0  0  0
  -91.3734   25.8821    0.3658 N   0  0  0  0  0  0  0  0  0  0  0  0
  -91.1293   24.8976    1.2288 C   0  0  0  0  0  0  0  0  0  0  0  0
  -90.6206   25.2018    2.4981 C   0  0  0  0  0  0  0  0  0  0  0  0
  -90.3181   23.7973    3.7430 Br  0  0  0  0  0  0  0  0  0  0  0  0
  -90.4001   26.5142    2.8234 C   0  0  0  0  0  0  0  0  0  0  0  0
  -90.6642   27.4016    1.9554 N   0  0  0  0  0  0  0  0  0  0  0  0
  7  8  1  0  0  0
  8  9  2  0  0  0
  9 10  1  0  0  0
 10 11  2  0  0  0
 11  1  1  0  0  0
  1  2  1  0  0  0
  2 14  1  0  0  0
 14 16  1  0  0  0
 16 17  2  0  0  0
 16 18  2  0  0  0
 16 19  1  0  0  0
 19 20  2  0  0  0
 20 21  1  0  0  0
 21 22  2  0  0  0
 22 23  1  0  0  0
 22 24  1  0  0  0
 24 25  2  0  0  0
  2  3  2  0  0  0
  3  4  1  0  0  0
  4  5  2  0  0  0
  5  6  1  0  0  0
  6 26  1  0  0  0
 26 27  1  0  0  0
 27 28  1  0  0  0
 28 29  1  0  0  0
 29 30  1  0  0  0
 30 31  2  0  0  0
 31 32  1  0  0  0
 32 33  2  0  0  0
 33 34  1  0  0  0
 33 35  1  0  0  0
 35 36  2  0  0  0
 11 12  1  0  0  0
 12 13  2  0  0  0
 13  8  1  0  0  0
  6  1  2  0  0  0
 36 30  1  0  0  0
 25 19  1  0  0  0
 14 15  1  0  0  0
M  END
> <minimizedAffinity>
-8.18621

> <CNNscore>
0.1060750186

> <CNNaffinity>
6.5566992760

> <CNN_VS>
0.6955019832

> <CNNaffinity_variance>
0.9077095985

$$$$
[H]c1nc(OC([H])([H])C([H])([H])Oc2nc([H])c(Br)c([H])n2)c(-c2c([H])c([H])c(C([H])([H])[H])c([H])c2[H])c(N([H])S(=O)(=O)c2c([H])c([H])c(Cl)c([H])c2[H])n1


 36 39  0  0  0  0  0  0  0  0999 V2000
  -91.1216   30.3817   -2.9382 C   0  0  0  0  0  0  0  0  0  0  0  0
  -91.7849   30.5635   -4.1019 C   0  0  0  0  0  0  0  0  0  0  0  0
  -93.0546   29.8654   -4.2631 N   0  0  0  0  0  0  0  0  0  0  0  0
  -93.5465   29.0974   -3.3360 C   0  0  0  0  0  0  0  0  0  0  0  0
  -92.8998   28.9099   -2.1792 N   0  0  0  0  0  0  0  0  0  0  0  0
  -91.7767   29.4817   -1.9744 C   0  0  0  0  0  0  0  0  0  0  0  0
  -86.5209   33.6840   -2.5597 C   0  0  0  0  0  0  0  0  0  0  0  0
  -87.6214   32.7065   -2.4396 C   0  0  0  0  0  0  0  0  0  0  0  0
  -87.6492   31.5083   -3.0461 C   0  0  0  0  0  0  0  0  0  0  0  0
  -88.7080   30.6521   -3.1177 C   0  0  0  0  0  0  0  0  0  0  0  0
  -89.9270   31.0146   -2.4934 C   0  0  0  0  0  0  0  0  0  0  0  0
  -89.9140   32.2320   -1.8293 C   0  0  0  0  0  0  0  0  0  0  0  0
  -88.8290   33.1106   -1.7530 C   0  0  0  0  0  0  0  0  0  0  0  0
  -91.3098   31.2961   -5.1684 N   0  0  0  0  0  0  0  0  0  0  0  0
  -90.6870   31.0424   -5.8759 H   0  0  0  0  0  0  0  0  0  0  0  0
  -91.8610   32.9998   -5.2170 S   0  0  0  0  0  0  0  0  0  0  0  0
  -92.3544   33.1061   -6.7097 O   0  0  0  0  0  0  0  0  0  0  0  0
  -93.0944   33.1765   -4.4106 O   0  0  0  0  0  0  0  0  0  0  0  0
  -90.6709   34.1727   -4.9989 C   0  0  0  0  0  0  0  0  0  0  0  0
  -89.4529   34.0386   -5.5403 C   0  0  0  0  0  0  0  0  0  0  0  0
  -88.3694   34.8055   -5.3992 C   0  0  0  0  0  0  0  0  0  0  0  0
  -88.4829   35.8971   -4.5657 C   0  0  0  0  0  0  0  0  0  0  0  0
  -87.1254   36.9844   -4.2807 Cl  0  0  0  0  0  0  0  0  0  0  0  0
  -89.6999   36.1789   -3.8856 C   0  0  0  0  0  0  0  0  0  0  0  0
  -90.7850   35.2989   -4.1248 C   0  0  0  0  0  0  0  0  0  0  0  0
  -90.9835   29.3258   -0.8768 O   0  0  0  0  0  0  0  0  0  0  0  0
  -90.3775   28.4377   -0.2251 C   0  0  0  0  0  0  0  0  0  0  0  0
  -89.1269   28.1136    0.4364 C   0  0  0  0  0  0  0  0  0  0  0  0
  -87.9679   28.6606    0.5195 O   0  0  0  0  0  0  0  0  0  0  0  0
  -86.8201   29.1972    0.5951 C   0  0  0  0  0  0  0  0  0  0  0  0
  -86.6845   30.6198    0.2488 N   0  0  0  0  0  0  0  0  0  0  0  0
  -85.5301   31.2784    0.3324 C   0  0  0  0  0  0  0  0  0  0  0  0
  -84.3808   30.6058    0.7672 C   0  0  0  0  0  0  0  0  0  0  0  0
  -82.7256   31.5381    0.8399 Br  0  0  0  0  0  0  0  0  0  0  0  0
  -84.4743   29.2761    1.0833 C   0  0  0  0  0  0  0  0  0  0  0  0
  -85.6043   28.7093    0.9713 N   0  0  0  0  0  0  0  0  0  0  0  0
  7  8  1  0  0  0
  8  9  2  0  0  0
  9 10  1  0  0  0
 10 11  2  0  0  0
 11  1  1  0  0  0
  1  2  1  0  0  0
  2 14  1  0  0  0
 14 16  1  0  0  0
 16 17  2  0  0  0
 16 18  2  0  0  0
 16 19  1  0  0  0
 19 20  2  0  0  0
 20 21  1  0  0  0
 21 22  2  0  0  0
 22 23  1  0  0  0
 22 24  1  0  0  0
 24 25  2  0  0  0
  2  3  2  0  0  0
  3  4  1  0  0  0
  4  5  2  0  0  0
  5  6  1  0  0  0
  6 26  1  0  0  0
 26 27  1  0  0  0
 27 28  1  0  0  0
 28 29  1  0  0  0
 29 30  1  0  0  0
 30 31  2  0  0  0
 31 32  1  0  0  0
 32 33  2  0  0  0
 33 34  1  0  0  0
 33 35  1  0  0  0
 35 36  2  0  0  0
 11 12  1  0  0  0
 12 13  2  0  0  0
 13  8  1  0  0  0
  6  1  2  0  0  0
 36 30  1  0  0  0
 25 19  1  0  0  0
 14 15  1  0  0  0
M  END
> <minimizedAffinity>
-7.10116

> <CNNscore>
0.0769157112

> <CNNaffinity>
6.3523716927

> <CNN_VS>
0.4885971844

> <CNNaffinity_variance>
0.4001747072

$$$$
[H]c1nc(N([H])[C@@]([H])(c2c([H])c([H])c(Cl)c([H])c2[H])C([H])([H])N([H])C([H])([H])[H])c2nc([H])c([H])c(C(=O)N([H])[H])c2n1


 29 31  0  0  0  0  0  0  0  0999 V2000
  -85.4515   32.1487   -0.0580 C   0  0  0  0  0  0  0  0  0  0  0  0
  -84.2107   32.6681   -0.0683 N   0  0  0  0  0  0  0  0  0  0  0  0
  -83.1597   31.9890    0.4676 C   0  0  0  0  0  0  0  0  0  0  0  0
  -83.3206   30.7677    1.0304 N   0  0  0  0  0  0  0  0  0  0  0  0
  -84.5277   30.2069    1.0671 C   0  0  0  0  0  0  0  0  0  0  0  0
  -84.6927   28.9624    1.6397 C   0  0  0  0  0  0  0  0  0  0  0  0
  -85.9704   28.4475    1.6402 C   0  0  0  0  0  0  0  0  0  0  0  0
  -87.0172   29.1514    1.0934 C   0  0  0  0  0  0  0  0  0  0  0  0
  -86.8179   30.3583    0.5455 N   0  0  0  0  0  0  0  0  0  0  0  0
  -85.6028   30.9067    0.5166 C   0  0  0  0  0  0  0  0  0  0  0  0
  -83.5923   28.2026    2.2216 C   0  0  0  0  0  0  0  0  0  0  0  0
  -82.2882   28.7213    2.1650 N   0  0  0  0  0  0  0  0  0  0  0  0
  -83.7839   27.0821    2.7789 O   0  0  0  0  0  0  0  0  0  0  0  0
  -81.5121   28.0301    1.9636 H   0  0  0  0  0  0  0  0  0  0  0  0
  -82.1084   29.7269    2.3136 H   0  0  0  0  0  0  0  0  0  0  0  0
  -86.5380   32.8700   -0.6241 N   0  0  0  0  0  0  0  0  0  0  0  0
  -87.1380   33.4236    0.0327 H   0  0  0  0  0  0  0  0  0  0  0  0
  -86.8169   32.8509   -2.0423 C   0  0  0  0  0  0  0  0  0  0  0  0
  -87.9893   32.0198   -2.3176 C   0  0  0  0  0  0  0  0  0  0  0  0
  -89.2264   32.2109   -1.7421 C   0  0  0  0  0  0  0  0  0  0  0  0
  -90.3004   31.3981   -2.0369 C   0  0  0  0  0  0  0  0  0  0  0  0
  -90.1556   30.3605   -2.9283 C   0  0  0  0  0  0  0  0  0  0  0  0
  -91.5227   29.3223   -3.3065 Cl  0  0  0  0  0  0  0  0  0  0  0  0
  -88.9253   30.1480   -3.5191 C   0  0  0  0  0  0  0  0  0  0  0  0
  -87.8730   30.9732   -3.2067 C   0  0  0  0  0  0  0  0  0  0  0  0
  -86.9235   34.2696   -2.5437 C   0  0  0  0  0  0  0  0  0  0  0  0
  -87.1053   35.6615   -4.5029 C   0  0  0  0  0  0  0  0  0  0  0  0
  -86.7087   34.4019   -3.9494 N   0  0  0  0  0  0  0  0  0  0  0  0
  -85.7135   34.2470   -4.1542 H   0  0  0  0  0  0  0  0  0  0  0  0
 27 28  1  0  0  0
 28 26  1  0  0  0
 26 18  1  0  0  0
 18 16  1  0  0  0
 16  1  1  0  0  0
  1  2  2  0  0  0
  2  3  1  0  0  0
  3  4  2  0  0  0
  4  5  1  0  0  0
  5  6  2  0  0  0
  6 11  1  0  0  0
 11 12  1  0  0  0
 11 13  2  0  0  0
  6  7  1  0  0  0
  7  8  2  0  0  0
  8  9  1  0  0  0
  9 10  2  0  0  0
 18 19  1  0  0  0
 19 20  2  0  0  0
 20 21  1  0  0  0
 21 22  2  0  0  0
 22 23  1  0  0  0
 22 24  1  0  0  0
 24 25  2  0  0  0
 10  1  1  0  0  0
 25 19  1  0  0  0
 10  5  1  0  0  0
 28 29  1  0  0  0
 16 17  1  0  0  0
 12 14  1  0  0  0
 12 15  1  0  0  0
M  END
> <minimizedAffinity>
-7.53943

> <CNNscore>
0.7692446709

> <CNNaffinity>
6.9704604149

> <CNN_VS>
5.3619894981

> <CNNaffinity_variance>
0.0906780213

$$$$
[H]c1nc(N([H])[C@@]([H])(c2c([H])c([H])c(Cl)c([H])c2[H])C([H])([H])N([H])C([H])([H])[H])c2nc([H])c([H])c(C(=O)N([H])[H])c2n1


 29 31  0  0  0  0  0  0  0  0999 V2000
  -86.6167   32.3163   -1.4625 C   0  0  0  0  0  0  0  0  0  0  0  0
  -85.6861   33.2470   -1.1841 N   0  0  0  0  0  0  0  0  0  0  0  0
  -84.8015   33.0736   -0.1641 C   0  0  0  0  0  0  0  0  0  0  0  0
  -84.8227   31.9612    0.6082 N   0  0  0  0  0  0  0  0  0  0  0  0
  -85.7230   31.0081    0.3759 C   0  0  0  0  0  0  0  0  0  0  0  0
  -85.7452   29.8742    1.1617 C   0  0  0  0  0  0  0  0  0  0  0  0
  -86.7050   28.9330    0.8607 C   0  0  0  0  0  0  0  0  0  0  0  0
  -87.5885   29.1294   -0.1742 C   0  0  0  0  0  0  0  0  0  0  0  0
  -87.5362   30.2443   -0.9162 N   0  0  0  0  0  0  0  0  0  0  0  0
  -86.6285   31.1899   -0.6709 C   0  0  0  0  0  0  0  0  0  0  0  0
  -84.8135   29.6503    2.2612 C   0  0  0  0  0  0  0  0  0  0  0  0
  -83.4472   29.4782    1.9851 N   0  0  0  0  0  0  0  0  0  0  0  0
  -85.2073   29.6071    3.4636 O   0  0  0  0  0  0  0  0  0  0  0  0
  -82.9384   28.7432    2.5523 H   0  0  0  0  0  0  0  0  0  0  0  0
  -82.9744   30.0451    1.2634 H   0  0  0  0  0  0  0  0  0  0  0  0
  -87.5318   32.5117   -2.5329 N   0  0  0  0  0  0  0  0  0  0  0  0
  -87.3106   32.0412   -3.4426 H   0  0  0  0  0  0  0  0  0  0  0  0
  -88.7204   33.3216   -2.3892 C   0  0  0  0  0  0  0  0  0  0  0  0
  -88.7720   34.3377   -3.4408 C   0  0  0  0  0  0  0  0  0  0  0  0
  -89.7862   35.2602   -3.5773 C   0  0  0  0  0  0  0  0  0  0  0  0
  -89.7864   36.1986   -4.5874 C   0  0  0  0  0  0  0  0  0  0  0  0
  -88.7545   36.2334   -5.4963 C   0  0  0  0  0  0  0  0  0  0  0  0
  -88.7515   37.4284   -6.7854 Cl  0  0  0  0  0  0  0  0  0  0  0  0
  -87.7254   35.3193   -5.3811 C   0  0  0  0  0  0  0  0  0  0  0  0
  -87.7513   34.3957   -4.3652 C   0  0  0  0  0  0  0  0  0  0  0  0
  -89.9282   32.4198   -2.3303 C   0  0  0  0  0  0  0  0  0  0  0  0
  -90.4353   30.9625   -4.1818 C   0  0  0  0  0  0  0  0  0  0  0  0
  -89.7294   31.1486   -2.9500 N   0  0  0  0  0  0  0  0  0  0  0  0
  -88.7250   31.0090   -3.1177 H   0  0  0  0  0  0  0  0  0  0  0  0
 27 28  1  0  0  0
 28 26  1  0  0  0
 26 18  1  0  0  0
 18 16  1  0  0  0
 16  1  1  0  0  0
  1  2  2  0  0  0
  2  3  1  0  0  0
  3  4  2  0  0  0
  4  5  1  0  0  0
  5  6  2  0  0  0
  6 11  1  0  0  0
 11 12  1  0  0  0
 11 13  2  0  0  0
  6  7  1  0  0  0
  7  8  2  0  0  0
  8  9  1  0  0  0
  9 10  2  0  0  0
 18 19  1  0  0  0
 19 20  2  0  0  0
 20 21  1  0  0  0
 21 22  2  0  0  0
 22 23  1  0  0  0
 22 24  1  0  0  0
 24 25  2  0  0  0
 10  1  1  0  0  0
 25 19  1  0  0  0
 10  5  1  0  0  0
 28 29  1  0  0  0
 16 17  1  0  0  0
 12 14  1  0  0  0
 12 15  1  0  0  0
M  END
> <minimizedAffinity>
-6.42465

> <CNNscore>
0.4095779657

> <CNNaffinity>
6.2924551964

> <CNN_VS>
2.5772509575

> <CNNaffinity_variance>
0.3894963264

$$$$
[H]c1nc(N([H])[C@@]([H])(c2c([H])c([H])c(Cl)c([H])c2[H])C([H])([H])N([H])C([H])([H])[H])c2nc([H])c([H])c(C(=O)N([H])[H])c2n1


 29 31  0  0  0  0  0  0  0  0999 V2000
  -87.0968   29.0644    0.7020 C   0  0  0  0  0  0  0  0  0  0  0  0
  -86.1234   28.2880    1.2114 N   0  0  0  0  0  0  0  0  0  0  0  0
  -84.8387   28.7313    1.2889 C   0  0  0  0  0  0  0  0  0  0  0  0
  -84.4904   29.9672    0.8581 N   0  0  0  0  0  0  0  0  0  0  0  0
  -85.4146   30.7770    0.3453 C   0  0  0  0  0  0  0  0  0  0  0  0
  -85.0611   32.0365   -0.0935 C   0  0  0  0  0  0  0  0  0  0  0  0
  -86.0718   32.8162   -0.6113 C   0  0  0  0  0  0  0  0  0  0  0  0
  -87.3625   32.3476   -0.6800 C   0  0  0  0  0  0  0  0  0  0  0  0
  -87.6680   31.1178   -0.2434 N   0  0  0  0  0  0  0  0  0  0  0  0
  -86.7309   30.3185    0.2674 C   0  0  0  0  0  0  0  0  0  0  0  0
  -83.6973   32.5486   -0.0251 C   0  0  0  0  0  0  0  0  0  0  0  0
  -82.9481   32.3649    1.1486 N   0  0  0  0  0  0  0  0  0  0  0  0
  -83.1694   33.1573   -1.0016 O   0  0  0  0  0  0  0  0  0  0  0  0
  -82.3431   33.1774    1.4563 H   0  0  0  0  0  0  0  0  0  0  0  0
  -82.9935   31.4785    1.6760 H   0  0  0  0  0  0  0  0  0  0  0  0
  -88.4341   28.5871    0.6304 N   0  0  0  0  0  0  0  0  0  0  0  0
  -89.1606   29.1188    1.1665 H   0  0  0  0  0  0  0  0  0  0  0  0
  -88.7928   27.4202   -0.1435 C   0  0  0  0  0  0  0  0  0  0  0  0
  -89.3481   26.3845    0.7281 C   0  0  0  0  0  0  0  0  0  0  0  0
  -89.7487   25.1398    0.2941 C   0  0  0  0  0  0  0  0  0  0  0  0
  -90.2657   24.1983    1.1585 C   0  0  0  0  0  0  0  0  0  0  0  0
  -90.3945   24.4883    2.4969 C   0  0  0  0  0  0  0  0  0  0  0  0
  -91.0532   23.2903    3.6019 Cl  0  0  0  0  0  0  0  0  0  0  0  0
  -89.9999   25.7293    2.9574 C   0  0  0  0  0  0  0  0  0  0  0  0
  -89.4884   26.6477    2.0738 C   0  0  0  0  0  0  0  0  0  0  0  0
  -89.6986   27.8377   -1.2753 C   0  0  0  0  0  0  0  0  0  0  0  0
  -91.4405   29.4883   -1.4995 C   0  0  0  0  0  0  0  0  0  0  0  0
  -90.9805   28.2993   -0.8476 N   0  0  0  0  0  0  0  0  0  0  0  0
  -91.6723   27.5526   -0.9904 H   0  0  0  0  0  0  0  0  0  0  0  0
 27 28  1  0  0  0
 28 26  1  0  0  0
 26 18  1  0  0  0
 18 16  1  0  0  0
 16  1  1  0  0  0
  1  2  2  0  0  0
  2  3  1  0  0  0
  3  4  2  0  0  0
  4  5  1  0  0  0
  5  6  2  0  0  0
  6 11  1  0  0  0
 11 12  1  0  0  0
 11 13  2  0  0  0
  6  7  1  0  0  0
  7  8  2  0  0  0
  8  9  1  0  0  0
  9 10  2  0  0  0
 18 19  1  0  0  0
 19 20  2  0  0  0
 20 21  1  0  0  0
 21 22  2  0  0  0
 22 23  1  0  0  0
 22 24  1  0  0  0
 24 25  2  0  0  0
 10  1  1  0  0  0
 25 19  1  0  0  0
 10  5  1  0  0  0
 28 29  1  0  0  0
 16 17  1  0  0  0
 12 14  1  0  0  0
 12 15  1  0  0  0
M  END
> <minimizedAffinity>
-6.55010

> <CNNscore>
0.3514472544

> <CNNaffinity>
6.3536052704

> <CNN_VS>
2.2329571247

> <CNNaffinity_variance>
0.7116104960

$$$$
[H]c1nc(N([H])[C@@]([H])(c2c([H])c([H])c(Cl)c([H])c2[H])C([H])([H])N([H])C([H])([H])[H])c2nc([H])c([H])c(C(=O)N([H])[H])c2n1


 29 31  0  0  0  0  0  0  0  0999 V2000
  -87.3311   30.4739   -1.3596 C   0  0  0  0  0  0  0  0  0  0  0  0
  -87.7784   29.2114   -1.2339 N   0  0  0  0  0  0  0  0  0  0  0  0
  -87.2197   28.3537   -0.3366 C   0  0  0  0  0  0  0  0  0  0  0  0
  -86.1952   28.7356    0.4626 N   0  0  0  0  0  0  0  0  0  0  0  0
  -85.7140   29.9743    0.3797 C   0  0  0  0  0  0  0  0  0  0  0  0
  -84.6705   30.3647    1.1937 C   0  0  0  0  0  0  0  0  0  0  0  0
  -84.2271   31.6610    1.0503 C   0  0  0  0  0  0  0  0  0  0  0  0
  -84.8064   32.5100    0.1371 C   0  0  0  0  0  0  0  0  0  0  0  0
  -85.8188   32.0947   -0.6368 N   0  0  0  0  0  0  0  0  0  0  0  0
  -86.2895   30.8508   -0.5419 C   0  0  0  0  0  0  0  0  0  0  0  0
  -84.0474   29.4768    2.1685 C   0  0  0  0  0  0  0  0  0  0  0  0
  -84.8292   28.9168    3.1922 N   0  0  0  0  0  0  0  0  0  0  0  0
  -82.8139   29.1970    2.1149 O   0  0  0  0  0  0  0  0  0  0  0  0
  -84.3840   28.8604    4.1511 H   0  0  0  0  0  0  0  0  0  0  0  0
  -85.7877   28.5811    3.0069 H   0  0  0  0  0  0  0  0  0  0  0  0
  -87.9273   31.3579   -2.3000 N   0  0  0  0  0  0  0  0  0  0  0  0
  -87.5313   31.3615   -3.2701 H   0  0  0  0  0  0  0  0  0  0  0  0
  -89.0323   32.2212   -1.9493 C   0  0  0  0  0  0  0  0  0  0  0  0
  -88.8787   33.5275   -2.5902 C   0  0  0  0  0  0  0  0  0  0  0  0
  -87.7200   34.2724   -2.5624 C   0  0  0  0  0  0  0  0  0  0  0  0
  -87.6277   35.4995   -3.1843 C   0  0  0  0  0  0  0  0  0  0  0  0
  -88.7110   36.0144   -3.8576 C   0  0  0  0  0  0  0  0  0  0  0  0
  -88.5968   37.5786   -4.6516 Cl  0  0  0  0  0  0  0  0  0  0  0  0
  -89.8844   35.2870   -3.9004 C   0  0  0  0  0  0  0  0  0  0  0  0
  -89.9480   34.0677   -3.2719 C   0  0  0  0  0  0  0  0  0  0  0  0
  -90.3285   31.5172   -2.2656 C   0  0  0  0  0  0  0  0  0  0  0  0
  -91.0388   29.3083   -2.9175 C   0  0  0  0  0  0  0  0  0  0  0  0
  -90.1853   30.4280   -3.1781 N   0  0  0  0  0  0  0  0  0  0  0  0
  -90.3595   30.7640   -4.1337 H   0  0  0  0  0  0  0  0  0  0  0  0
 27 28  1  0  0  0
 28 26  1  0  0  0
 26 18  1  0  0  0
 18 16  1  0  0  0
 16  1  1  0  0  0
  1  2  2  0  0  0
  2  3  1  0  0  0
  3  4  2  0  0  0
  4  5  1  0  0  0
  5  6  2  0  0  0
  6 11  1  0  0  0
 11 12  1  0  0  0
 11 13  2  0  0  0
  6  7  1  0  0  0
  7  8  2  0  0  0
  8  9  1  0  0  0
  9 10  2  0  0  0
 18 19  1  0  0  0
 19 20  2  0  0  0
 20 21  1  0  0  0
 21 22  2  0  0  0
 22 23  1  0  0  0
 22 24  1  0  0  0
 24 25  2  0  0  0
 10  1  1  0  0  0
 25 19  1  0  0  0
 10  5  1  0  0  0
 28 29  1  0  0  0
 16 17  1  0  0  0
 12 14  1  0  0  0
 12 15  1  0  0  0
M  END
> <minimizedAffinity>
-6.57099

> <CNNscore>
0.2674253285

> <CNNaffinity>
6.1505336761

> <CNN_VS>
1.6448085308

> <CNNaffinity_variance>
0.4659056664

$$$$
[H]c1nc(N([H])[C@@]([H])(c2c([H])c([H])c(Cl)c([H])c2[H])C([H])([H])N([H])C([H])([H])[H])c2nc([H])c([H])c(C(=O)N([H])[H])c2n1


 29 31  0  0  0  0  0  0  0  0999 V2000
  -88.1525   28.5338    0.0574 C   0  0  0  0  0  0  0  0  0  0  0  0
  -88.4074   29.7531   -0.4506 N   0  0  0  0  0  0  0  0  0  0  0  0
  -87.5286   30.7800   -0.2887 C   0  0  0  0  0  0  0  0  0  0  0  0
  -86.3667   30.6157    0.3874 N   0  0  0  0  0  0  0  0  0  0  0  0
  -86.0643   29.4292    0.9106 C   0  0  0  0  0  0  0  0  0  0  0  0
  -84.8807   29.2606    1.5992 C   0  0  0  0  0  0  0  0  0  0  0  0
  -84.6377   28.0050    2.1113 C   0  0  0  0  0  0  0  0  0  0  0  0
  -85.5399   26.9826    1.9358 C   0  0  0  0  0  0  0  0  0  0  0  0
  -86.6798   27.1844    1.2605 N   0  0  0  0  0  0  0  0  0  0  0  0
  -86.9683   28.3788    0.7426 C   0  0  0  0  0  0  0  0  0  0  0  0
  -83.9128   30.3344    1.7917 C   0  0  0  0  0  0  0  0  0  0  0  0
  -84.3441   31.5709    2.2992 N   0  0  0  0  0  0  0  0  0  0  0  0
  -82.6880   30.1791    1.5114 O   0  0  0  0  0  0  0  0  0  0  0  0
  -83.9141   32.4363    1.8668 H   0  0  0  0  0  0  0  0  0  0  0  0
  -85.0453   31.6206    3.0553 H   0  0  0  0  0  0  0  0  0  0  0  0
  -89.0798   27.4713   -0.1226 N   0  0  0  0  0  0  0  0  0  0  0  0
  -88.7986   26.6959   -0.7688 H   0  0  0  0  0  0  0  0  0  0  0  0
  -90.3595   27.4466    0.5489 C   0  0  0  0  0  0  0  0  0  0  0  0
  -90.1766   27.2054    1.9805 C   0  0  0  0  0  0  0  0  0  0  0  0
  -89.6279   26.0573    2.5085 C   0  0  0  0  0  0  0  0  0  0  0  0
  -89.4771   25.8802    3.8675 C   0  0  0  0  0  0  0  0  0  0  0  0
  -89.8791   26.8648    4.7399 C   0  0  0  0  0  0  0  0  0  0  0  0
  -89.6883   26.6424    6.4731 Cl  0  0  0  0  0  0  0  0  0  0  0  0
  -90.4321   28.0257    4.2356 C   0  0  0  0  0  0  0  0  0  0  0  0
  -90.5704   28.1750    2.8775 C   0  0  0  0  0  0  0  0  0  0  0  0
  -91.1151   28.7097    0.2184 C   0  0  0  0  0  0  0  0  0  0  0  0
  -92.2871   29.4302   -1.7606 C   0  0  0  0  0  0  0  0  0  0  0  0
  -92.2165   28.5074   -0.6680 N   0  0  0  0  0  0  0  0  0  0  0  0
  -92.1764   27.5510   -1.0422 H   0  0  0  0  0  0  0  0  0  0  0  0
 27 28  1  0  0  0
 28 26  1  0  0  0
 26 18  1  0  0  0
 18 16  1  0  0  0
 16  1  1  0  0  0
  1  2  2  0  0  0
  2  3  1  0  0  0
  3  4  2  0  0  0
  4  5  1  0  0  0
  5  6  2  0  0  0
  6 11  1  0  0  0
 11 12  1  0  0  0
 11 13  2  0  0  0
  6  7  1  0  0  0
  7  8  2  0  0  0
  8  9  1  0  0  0
  9 10  2  0  0  0
 18 19  1  0  0  0
 19 20  2  0  0  0
 20 21  1  0  0  0
 21 22  2  0  0  0
 22 23  1  0  0  0
 22 24  1  0  0  0
 24 25  2  0  0  0
 10  1  1  0  0  0
 25 19  1  0  0  0
 10  5  1  0  0  0
 28 29  1  0  0  0
 16 17  1  0  0  0
 12 14  1  0  0  0
 12 15  1  0  0  0
M  END
> <minimizedAffinity>
-7.45065

> <CNNscore>
0.2128361464

> <CNNaffinity>
5.9694542885

> <CNN_VS>
1.2705156803

> <CNNaffinity_variance>
0.2042252272

$$$$
[H]c1nc(N([H])[C@@]([H])(c2c([H])c([H])c(Cl)c([H])c2[H])C([H])([H])N([H])C([H])([H])[H])c2nc([H])c([H])c(C(=O)N([H])[H])c2n1


 29 31  0  0  0  0  0  0  0  0999 V2000
  -87.5719   28.5762    0.5459 C   0  0  0  0  0  0  0  0  0  0  0  0
  -87.1577   27.4451    1.1448 N   0  0  0  0  0  0  0  0  0  0  0  0
  -85.8914   27.3300    1.6309 C   0  0  0  0  0  0  0  0  0  0  0  0
  -85.0014   28.3460    1.5316 N   0  0  0  0  0  0  0  0  0  0  0  0
  -85.3591   29.4881    0.9481 C   0  0  0  0  0  0  0  0  0  0  0  0
  -84.4533   30.5240    0.8468 C   0  0  0  0  0  0  0  0  0  0  0  0
  -84.8965   31.6737    0.2307 C   0  0  0  0  0  0  0  0  0  0  0  0
  -86.1799   31.7675   -0.2531 C   0  0  0  0  0  0  0  0  0  0  0  0
  -87.0320   30.7396   -0.1361 N   0  0  0  0  0  0  0  0  0  0  0  0
  -86.6585   29.6020    0.4508 C   0  0  0  0  0  0  0  0  0  0  0  0
  -83.0896   30.4406    1.3570 C   0  0  0  0  0  0  0  0  0  0  0  0
  -82.6678   29.2734    2.0145 N   0  0  0  0  0  0  0  0  0  0  0  0
  -82.2728   31.3984    1.2214 O   0  0  0  0  0  0  0  0  0  0  0  0
  -82.0528   29.4055    2.8660 H   0  0  0  0  0  0  0  0  0  0  0  0
  -82.9500   28.3399    1.6755 H   0  0  0  0  0  0  0  0  0  0  0  0
  -88.8986   28.6810    0.0457 N   0  0  0  0  0  0  0  0  0  0  0  0
  -89.6168   29.1036    0.6809 H   0  0  0  0  0  0  0  0  0  0  0  0
  -89.2579   28.2288   -1.2793 C   0  0  0  0  0  0  0  0  0  0  0  0
  -89.1517   29.3297   -2.2372 C   0  0  0  0  0  0  0  0  0  0  0  0
  -88.0853   29.5145   -3.0897 C   0  0  0  0  0  0  0  0  0  0  0  0
  -88.0348   30.5701   -3.9752 C   0  0  0  0  0  0  0  0  0  0  0  0
  -89.0677   31.4772   -4.0262 C   0  0  0  0  0  0  0  0  0  0  0  0
  -89.0066   32.8241   -5.1540 Cl  0  0  0  0  0  0  0  0  0  0  0  0
  -90.1485   31.3140   -3.1819 C   0  0  0  0  0  0  0  0  0  0  0  0
  -90.1721   30.2535   -2.3099 C   0  0  0  0  0  0  0  0  0  0  0  0
  -88.4333   27.0145   -1.6272 C   0  0  0  0  0  0  0  0  0  0  0  0
  -90.4657   26.0800   -2.5244 C   0  0  0  0  0  0  0  0  0  0  0  0
  -89.2101   25.8427   -1.8783 N   0  0  0  0  0  0  0  0  0  0  0  0
  -88.6596   25.1899   -2.4504 H   0  0  0  0  0  0  0  0  0  0  0  0
 27 28  1  0  0  0
 28 26  1  0  0  0
 26 18  1  0  0  0
 18 16  1  0  0  0
 16  1  1  0  0  0
  1  2  2  0  0  0
  2  3  1  0  0  0
  3  4  2  0  0  0
  4  5  1  0  0  0
  5  6  2  0  0  0
  6 11  1  0  0  0
 11 12  1  0  0  0
 11 13  2  0  0  0
  6  7  1  0  0  0
  7  8  2  0  0  0
  8  9  1  0  0  0
  9 10  2  0  0  0
 18 19  1  0  0  0
 19 20  2  0  0  0
 20 21  1  0  0  0
 21 22  2  0  0  0
 22 23  1  0  0  0
 22 24  1  0  0  0
 24 25  2  0  0  0
 10  1  1  0  0  0
 25 19  1  0  0  0
 10  5  1  0  0  0
 28 29  1  0  0  0
 16 17  1  0  0  0
 12 14  1  0  0  0
 12 15  1  0  0  0
M  END
> <minimizedAffinity>
-7.13334

> <CNNscore>
0.1512123495

> <CNNaffinity>
6.0682744980

> <CNN_VS>
0.9175980687

> <CNNaffinity_variance>
0.4091659486

$$$$
[H]c1nc(N([H])[C@@]([H])(c2c([H])c([H])c(Cl)c([H])c2[H])C([H])([H])N([H])C([H])([H])[H])c2nc([H])c([H])c(C(=O)N([H])[H])c2n1


 29 31  0  0  0  0  0  0  0  0999 V2000
  -86.9098   30.8708    0.0468 C   0  0  0  0  0  0  0  0  0  0  0  0
  -85.9848   31.8436   -0.0416 N   0  0  0  0  0  0  0  0  0  0  0  0
  -84.7339   31.6726    0.4673 C   0  0  0  0  0  0  0  0  0  0  0  0
  -84.3718   30.5206    1.0805 N   0  0  0  0  0  0  0  0  0  0  0  0
  -85.2485   29.5249    1.1951 C   0  0  0  0  0  0  0  0  0  0  0  0
  -84.8806   28.3506    1.8191 C   0  0  0  0  0  0  0  0  0  0  0  0
  -85.8415   27.3667    1.8993 C   0  0  0  0  0  0  0  0  0  0  0  0
  -87.0988   27.5616    1.3784 C   0  0  0  0  0  0  0  0  0  0  0  0
  -87.4195   28.7165    0.7788 N   0  0  0  0  0  0  0  0  0  0  0  0
  -86.5303   29.7044    0.6721 C   0  0  0  0  0  0  0  0  0  0  0  0
  -83.5505   28.1281    2.3744 C   0  0  0  0  0  0  0  0  0  0  0  0
  -82.5195   29.0366    2.0842 N   0  0  0  0  0  0  0  0  0  0  0  0
  -83.3009   27.1319    3.1148 O   0  0  0  0  0  0  0  0  0  0  0  0
  -81.5625   28.6235    1.8992 H   0  0  0  0  0  0  0  0  0  0  0  0
  -82.6981   30.0530    2.0552 H   0  0  0  0  0  0  0  0  0  0  0  0
  -88.2111   31.0646   -0.4920 N   0  0  0  0  0  0  0  0  0  0  0  0
  -88.9851   31.2599    0.1866 H   0  0  0  0  0  0  0  0  0  0  0  0
  -88.4722   30.9980   -1.9121 C   0  0  0  0  0  0  0  0  0  0  0  0
  -89.3271   29.8504   -2.2174 C   0  0  0  0  0  0  0  0  0  0  0  0
  -90.6875   29.9302   -2.4197 C   0  0  0  0  0  0  0  0  0  0  0  0
  -91.4480   28.8163   -2.7058 C   0  0  0  0  0  0  0  0  0  0  0  0
  -90.8526   27.5797   -2.7968 C   0  0  0  0  0  0  0  0  0  0  0  0
  -91.8191   26.1575   -3.1614 Cl  0  0  0  0  0  0  0  0  0  0  0  0
  -89.4898   27.4731   -2.5983 C   0  0  0  0  0  0  0  0  0  0  0  0
  -88.7571   28.5993   -2.3146 C   0  0  0  0  0  0  0  0  0  0  0  0
  -89.0170   32.3258   -2.3768 C   0  0  0  0  0  0  0  0  0  0  0  0
  -86.9809   33.3899   -3.1054 C   0  0  0  0  0  0  0  0  0  0  0  0
  -88.1034   33.4116   -2.2167 N   0  0  0  0  0  0  0  0  0  0  0  0
  -88.6087   34.2981   -2.3405 H   0  0  0  0  0  0  0  0  0  0  0  0
 27 28  1  0  0  0
 28 26  1  0  0  0
 26 18  1  0  0  0
 18 16  1  0  0  0
 16  1  1  0  0  0
  1  2  2  0  0  0
  2  3  1  0  0  0
  3  4  2  0  0  0
  4  5  1  0  0  0
  5  6  2  0  0  0
  6 11  1  0  0  0
 11 12  1  0  0  0
 11 13  2  0  0  0
  6  7  1  0  0  0
  7  8  2  0  0  0
  8  9  1  0  0  0
  9 10  2  0  0  0
 18 19  1  0  0  0
 19 20  2  0  0  0
 20 21  1  0  0  0
 21 22  2  0  0  0
 22 23  1  0  0  0
 22 24  1  0  0  0
 24 25  2  0  0  0
 10  1  1  0  0  0
 25 19  1  0  0  0
 10  5  1  0  0  0
 28 29  1  0  0  0
 16 17  1  0  0  0
 12 14  1  0  0  0
 12 15  1  0  0  0
M  END
> <minimizedAffinity>
-6.99759

> <CNNscore>
0.1358834058

> <CNNaffinity>
6.2483334541

> <CNN_VS>
0.8490448594

> <CNNaffinity_variance>
0.3487648666

$$$$
[H]c1nc(N([H])[C@@]([H])(c2c([H])c([H])c(Cl)c([H])c2[H])C([H])([H])N([H])C([H])([H])[H])c2nc([H])c([H])c(C(=O)N([H])[H])c2n1


 29 31  0  0  0  0  0  0  0  0999 V2000
  -88.3067   31.7062   -1.1707 C   0  0  0  0  0  0  0  0  0  0  0  0
  -87.9469   32.9449   -1.5529 N   0  0  0  0  0  0  0  0  0  0  0  0
  -86.7250   33.4523   -1.2325 C   0  0  0  0  0  0  0  0  0  0  0  0
  -85.8261   32.7332   -0.5191 N   0  0  0  0  0  0  0  0  0  0  0  0
  -86.1307   31.5013   -0.1157 C   0  0  0  0  0  0  0  0  0  0  0  0
  -85.2156   30.7675    0.6107 C   0  0  0  0  0  0  0  0  0  0  0  0
  -85.6025   29.5017    0.9923 C   0  0  0  0  0  0  0  0  0  0  0  0
  -86.8419   29.0097    0.6577 C   0  0  0  0  0  0  0  0  0  0  0  0
  -87.7047   29.7524   -0.0496 N   0  0  0  0  0  0  0  0  0  0  0  0
  -87.3848   30.9847   -0.4461 C   0  0  0  0  0  0  0  0  0  0  0  0
  -83.8965   31.2745    0.9714 C   0  0  0  0  0  0  0  0  0  0  0  0
  -82.8688   31.2699    0.0140 N   0  0  0  0  0  0  0  0  0  0  0  0
  -83.6535   31.7206    2.1310 O   0  0  0  0  0  0  0  0  0  0  0  0
  -81.9033   31.0035    0.3570 H   0  0  0  0  0  0  0  0  0  0  0  0
  -83.0576   31.5152   -0.9709 H   0  0  0  0  0  0  0  0  0  0  0  0
  -89.5858   31.1902   -1.5156 N   0  0  0  0  0  0  0  0  0  0  0  0
  -90.2969   31.1240   -0.7490 H   0  0  0  0  0  0  0  0  0  0  0  0
  -89.9075   30.7703   -2.8608 C   0  0  0  0  0  0  0  0  0  0  0  0
  -90.3793   29.3853   -2.8607 C   0  0  0  0  0  0  0  0  0  0  0  0
  -91.6695   29.0066   -3.1608 C   0  0  0  0  0  0  0  0  0  0  0  0
  -92.0629   27.6852   -3.1467 C   0  0  0  0  0  0  0  0  0  0  0  0
  -91.1580   26.6999   -2.8266 C   0  0  0  0  0  0  0  0  0  0  0  0
  -91.6562   25.0142   -2.8076 Cl  0  0  0  0  0  0  0  0  0  0  0  0
  -89.8581   27.0535   -2.5219 C   0  0  0  0  0  0  0  0  0  0  0  0
  -89.4941   28.3774   -2.5437 C   0  0  0  0  0  0  0  0  0  0  0  0
  -90.8697   31.7595   -3.4701 C   0  0  0  0  0  0  0  0  0  0  0  0
  -89.7796   33.4687   -4.7734 C   0  0  0  0  0  0  0  0  0  0  0  0
  -90.3673   33.0952   -3.5223 N   0  0  0  0  0  0  0  0  0  0  0  0
  -91.1285   33.7503   -3.3035 H   0  0  0  0  0  0  0  0  0  0  0  0
 27 28  1  0  0  0
 28 26  1  0  0  0
 26 18  1  0  0  0
 18 16  1  0  0  0
 16  1  1  0  0  0
  1  2  2  0  0  0
  2  3  1  0  0  0
  3  4  2  0  0  0
  4  5  1  0  0  0
  5  6  2  0  0  0
  6 11  1  0  0  0
 11 12  1  0  0  0
 11 13  2  0  0  0
  6  7  1  0  0  0
  7  8  2  0  0  0
  8  9  1  0  0  0
  9 10  2  0  0  0
 18 19  1  0  0  0
 19 20  2  0  0  0
 20 21  1  0  0  0
 21 22  2  0  0  0
 22 23  1  0  0  0
 22 24  1  0  0  0
 24 25  2  0  0  0
 10  1  1  0  0  0
 25 19  1  0  0  0
 10  5  1  0  0  0
 28 29  1  0  0  0
 16 17  1  0  0  0
 12 14  1  0  0  0
 12 15  1  0  0  0
M  END
> <minimizedAffinity>
-6.35690

> <CNNscore>
0.1263364702

> <CNNaffinity>
5.7778272629

> <CNN_VS>
0.7299503088

> <CNNaffinity_variance>
0.4212400913

$$$$
[H]c1nc(N([H])[C@@]([H])(c2c([H])c([H])c(Cl)c([H])c2[H])C([H])([H])N([H])C([H])([H])[H])c2nc([H])c([H])c(C(=O)N([H])[H])c2n1


 29 31  0  0  0  0  0  0  0  0999 V2000
  -87.6623   29.8844   -0.1186 C   0  0  0  0  0  0  0  0  0  0  0  0
  -86.9769   31.0367   -0.2286 N   0  0  0  0  0  0  0  0  0  0  0  0
  -85.7357   31.1711    0.3139 C   0  0  0  0  0  0  0  0  0  0  0  0
  -85.1433   30.1537    0.9835 N   0  0  0  0  0  0  0  0  0  0  0  0
  -85.7772   28.9910    1.1217 C   0  0  0  0  0  0  0  0  0  0  0  0
  -85.1745   27.9536    1.8032 C   0  0  0  0  0  0  0  0  0  0  0  0
  -85.8920   26.7821    1.9047 C   0  0  0  0  0  0  0  0  0  0  0  0
  -87.1445   26.6691    1.3490 C   0  0  0  0  0  0  0  0  0  0  0  0
  -87.6977   27.6991    0.6937 N   0  0  0  0  0  0  0  0  0  0  0  0
  -87.0500   28.8574    0.5640 C   0  0  0  0  0  0  0  0  0  0  0  0
  -83.8461   28.0573    2.3960 C   0  0  0  0  0  0  0  0  0  0  0  0
  -83.0585   29.1902    2.1332 N   0  0  0  0  0  0  0  0  0  0  0  0
  -83.3829   27.1477    3.1448 O   0  0  0  0  0  0  0  0  0  0  0  0
  -82.0251   29.0223    1.9760 H   0  0  0  0  0  0  0  0  0  0  0  0
  -83.4773   30.1331    2.0975 H   0  0  0  0  0  0  0  0  0  0  0  0
  -88.9567   29.7597   -0.6931 N   0  0  0  0  0  0  0  0  0  0  0  0
  -89.7760   29.8177   -0.0425 H   0  0  0  0  0  0  0  0  0  0  0  0
  -89.1518   29.5610   -2.1115 C   0  0  0  0  0  0  0  0  0  0  0  0
  -88.9426   30.8166   -2.8331 C   0  0  0  0  0  0  0  0  0  0  0  0
  -89.6129   31.9886   -2.5586 C   0  0  0  0  0  0  0  0  0  0  0  0
  -89.3774   33.1462   -3.2695 C   0  0  0  0  0  0  0  0  0  0  0  0
  -88.4512   33.1544   -4.2865 C   0  0  0  0  0  0  0  0  0  0  0  0
  -88.1485   34.6285   -5.1949 Cl  0  0  0  0  0  0  0  0  0  0  0  0
  -87.7656   31.9922   -4.5813 C   0  0  0  0  0  0  0  0  0  0  0  0
  -88.0205   30.8538   -3.8568 C   0  0  0  0  0  0  0  0  0  0  0  0
  -88.2803   28.4201   -2.5747 C   0  0  0  0  0  0  0  0  0  0  0  0
  -90.1202   26.8666   -2.6762 C   0  0  0  0  0  0  0  0  0  0  0  0
  -88.7863   27.1305   -2.2276 N   0  0  0  0  0  0  0  0  0  0  0  0
  -88.1591   26.4095   -2.6060 H   0  0  0  0  0  0  0  0  0  0  0  0
 27 28  1  0  0  0
 28 26  1  0  0  0
 26 18  1  0  0  0
 18 16  1  0  0  0
 16  1  1  0  0  0
  1  2  2  0  0  0
  2  3  1  0  0  0
  3  4  2  0  0  0
  4  5  1  0  0  0
  5  6  2  0  0  0
  6 11  1  0  0  0
 11 12  1  0  0  0
 11 13  2  0  0  0
  6  7  1  0  0  0
  7  8  2  0  0  0
  8  9  1  0  0  0
  9 10  2  0  0  0
 18 19  1  0  0  0
 19 20  2  0  0  0
 20 21  1  0  0  0
 21 22  2  0  0  0
 22 23  1  0  0  0
 22 24  1  0  0  0
 24 25  2  0  0  0
 10  1  1  0  0  0
 25 19  1  0  0  0
 10  5  1  0  0  0
 28 29  1  0  0  0
 16 17  1  0  0  0
 12 14  1  0  0  0
 12 15  1  0  0  0
M  END
> <minimizedAffinity>
-7.59276

> <CNNscore>
0.1231484264

> <CNNaffinity>
6.0621485710

> <CNN_VS>
0.7465440631

> <CNNaffinity_variance>
0.3808258176

$$$$
[H]Oc1c(OC([H])([H])[H])c(OC([H])([H])[H])c2c3c1-c1c([H])c([H])c([H])c([H])c1C([H])([H])[C@@]3([H])N([H])C([H])([H])C2([H])[H]


 24 27  0  0  0  0  0  0  0  0999 V2000
  -85.0334   31.5259    0.4792 C   0  0  0  0  0  0  0  0  0  0  0  0
  -85.6673   32.4184   -0.3743 C   0  0  0  0  0  0  0  0  0  0  0  0
  -84.9761   33.5719   -0.6311 O   0  0  0  0  0  0  0  0  0  0  0  0
  -86.9025   32.0766   -0.8766 C   0  0  0  0  0  0  0  0  0  0  0  0
  -87.5143   30.8859   -0.5540 C   0  0  0  0  0  0  0  0  0  0  0  0
  -86.8454   30.0187    0.3038 C   0  0  0  0  0  0  0  0  0  0  0  0
  -85.6163   30.3185    0.8253 C   0  0  0  0  0  0  0  0  0  0  0  0
  -87.5097   28.7487    0.6448 C   0  0  0  0  0  0  0  0  0  0  0  0
  -88.3604   28.1886   -0.4287 C   0  0  0  0  0  0  0  0  0  0  0  0
  -88.9936   29.0970   -1.2876 N   0  0  0  0  0  0  0  0  0  0  0  0
  -88.8289   30.4983   -1.0087 C   0  0  0  0  0  0  0  0  0  0  0  0
  -89.3659   31.2594   -2.1516 C   0  0  0  0  0  0  0  0  0  0  0  0
  -88.7800   32.5830   -2.3810 C   0  0  0  0  0  0  0  0  0  0  0  0
  -89.4499   33.4727   -3.2405 C   0  0  0  0  0  0  0  0  0  0  0  0
  -88.9453   34.6989   -3.5493 C   0  0  0  0  0  0  0  0  0  0  0  0
  -87.7498   35.0407   -2.9882 C   0  0  0  0  0  0  0  0  0  0  0  0
  -87.0311   34.2033   -2.1237 C   0  0  0  0  0  0  0  0  0  0  0  0
  -87.5592   32.9770   -1.8281 C   0  0  0  0  0  0  0  0  0  0  0  0
  -84.0803   33.8085   -0.2616 H   0  0  0  0  0  0  0  0  0  0  0  0
  -90.0347   28.9291   -1.3738 H   0  0  0  0  0  0  0  0  0  0  0  0
  -82.5645   31.4913    0.4346 C   0  0  0  0  0  0  0  0  0  0  0  0
  -83.7942   31.8452    0.9965 O   0  0  0  0  0  0  0  0  0  0  0  0
  -84.9854   29.4235    1.6773 O   0  0  0  0  0  0  0  0  0  0  0  0
  -85.1742   29.5217    3.0700 C   0  0  0  0  0  0  0  0  0  0  0  0
 21 22  1  0  0  0
 22  1  1  0  0  0
  1  2  2  0  0  0
  2  3  1  0  0  0
  2  4  1  0  0  0
  4  5  2  0  0  0
  5  6  1  0  0  0
  6  7  2  0  0  0
  7 23  1  0  0  0
 23 24  1  0  0  0
  6  8  1  0  0  0
  8  9  1  0  0  0
  9 10  1  0  0  0
 10 11  1  0  0  0
 11 12  1  0  0  0
 12 13  1  0  0  0
 13 14  2  0  0  0
 14 15  1  0  0  0
 15 16  2  0  0  0
 16 17  1  0  0  0
 17 18  2  0  0  0
  7  1  1  0  0  0
 18 13  1  0  0  0
 18  4  1  0  0  0
 11  5  1  0  0  0
  3 19  1  0  0  0
 10 20  1  0  0  0
M  END
> <minimizedAffinity>
-7.80960

> <CNNscore>
0.7653583884

> <CNNaffinity>
5.9789772034

> <CNN_VS>
4.5760602951

> <CNNaffinity_variance>
0.1025367975

$$$$
[H]Oc1c(OC([H])([H])[H])c(OC([H])([H])[H])c2c3c1-c1c([H])c([H])c([H])c([H])c1C([H])([H])[C@@]3([H])N([H])C([H])([H])C2([H])[H]


 24 27  0  0  0  0  0  0  0  0999 V2000
  -86.4426   29.0819    0.7738 C   0  0  0  0  0  0  0  0  0  0  0  0
  -87.1507   30.0445    0.0674 C   0  0  0  0  0  0  0  0  0  0  0  0
  -88.4871   29.7905   -0.0866 O   0  0  0  0  0  0  0  0  0  0  0  0
  -86.4677   31.1426   -0.4043 C   0  0  0  0  0  0  0  0  0  0  0  0
  -85.1163   31.3036   -0.1944 C   0  0  0  0  0  0  0  0  0  0  0  0
  -84.4436   30.3167    0.5189 C   0  0  0  0  0  0  0  0  0  0  0  0
  -85.0835   29.2096    1.0060 C   0  0  0  0  0  0  0  0  0  0  0  0
  -82.9976   30.4970    0.7356 C   0  0  0  0  0  0  0  0  0  0  0  0
  -82.5632   31.9055    0.8669 C   0  0  0  0  0  0  0  0  0  0  0  0
  -83.2861   32.8708    0.1529 N   0  0  0  0  0  0  0  0  0  0  0  0
  -84.3396   32.4066   -0.7092 C   0  0  0  0  0  0  0  0  0  0  0  0
  -85.1087   33.5791   -1.1652 C   0  0  0  0  0  0  0  0  0  0  0  0
  -86.5130   33.3387   -1.5088 C   0  0  0  0  0  0  0  0  0  0  0  0
  -87.2033   34.3252   -2.2364 C   0  0  0  0  0  0  0  0  0  0  0  0
  -88.5231   34.2042   -2.5481 C   0  0  0  0  0  0  0  0  0  0  0  0
  -89.1631   33.0764   -2.1243 C   0  0  0  0  0  0  0  0  0  0  0  0
  -88.5355   32.0552   -1.3974 C   0  0  0  0  0  0  0  0  0  0  0  0
  -87.2091   32.1996   -1.0975 C   0  0  0  0  0  0  0  0  0  0  0  0
  -88.9716   28.9908    0.2608 H   0  0  0  0  0  0  0  0  0  0  0  0
  -82.6704   33.4971   -0.4371 H   0  0  0  0  0  0  0  0  0  0  0  0
  -87.1640   26.7245    0.6283 C   0  0  0  0  0  0  0  0  0  0  0  0
  -87.1043   27.9712    1.2572 O   0  0  0  0  0  0  0  0  0  0  0  0
  -84.3726   28.2501    1.7123 O   0  0  0  0  0  0  0  0  0  0  0  0
  -84.1709   28.3991    3.0986 C   0  0  0  0  0  0  0  0  0  0  0  0
 21 22  1  0  0  0
 22  1  1  0  0  0
  1  2  2  0  0  0
  2  3  1  0  0  0
  2  4  1  0  0  0
  4  5  2  0  0  0
  5  6  1  0  0  0
  6  7  2  0  0  0
  7 23  1  0  0  0
 23 24  1  0  0  0
  6  8  1  0  0  0
  8  9  1  0  0  0
  9 10  1  0  0  0
 10 11  1  0  0  0
 11 12  1  0  0  0
 12 13  1  0  0  0
 13 14  2  0  0  0
 14 15  1  0  0  0
 15 16  2  0  0  0
 16 17  1  0  0  0
 17 18  2  0  0  0
  7  1  1  0  0  0
 18 13  1  0  0  0
 18  4  1  0  0  0
 11  5  1  0  0  0
  3 19  1  0  0  0
 10 20  1  0  0  0
M  END
> <minimizedAffinity>
-8.06122

> <CNNscore>
0.5598059297

> <CNNaffinity>
6.0654401779

> <CNN_VS>
3.3954694271

> <CNNaffinity_variance>
0.1020623073

$$$$
[H]Oc1c(OC([H])([H])[H])c(OC([H])([H])[H])c2c3c1-c1c([H])c([H])c([H])c([H])c1C([H])([H])[C@@]3([H])N([H])C([H])([H])C2([H])[H]


 24 27  0  0  0  0  0  0  0  0999 V2000
  -85.1856   31.0436    0.9463 C   0  0  0  0  0  0  0  0  0  0  0  0
  -85.8241   29.8317    1.1713 C   0  0  0  0  0  0  0  0  0  0  0  0
  -85.1567   28.9637    1.9931 O   0  0  0  0  0  0  0  0  0  0  0  0
  -87.0409   29.6124    0.5661 C   0  0  0  0  0  0  0  0  0  0  0  0
  -87.6290   30.5554   -0.2469 C   0  0  0  0  0  0  0  0  0  0  0  0
  -86.9570   31.7571   -0.4460 C   0  0  0  0  0  0  0  0  0  0  0  0
  -85.7463   32.0167    0.1364 C   0  0  0  0  0  0  0  0  0  0  0  0
  -87.5934   32.7583   -1.3196 C   0  0  0  0  0  0  0  0  0  0  0  0
  -89.0728   32.7553   -1.2876 C   0  0  0  0  0  0  0  0  0  0  0  0
  -89.7087   31.5280   -1.0565 N   0  0  0  0  0  0  0  0  0  0  0  0
  -88.8763   30.3602   -0.9477 C   0  0  0  0  0  0  0  0  0  0  0  0
  -89.7137   29.2429   -0.4739 C   0  0  0  0  0  0  0  0  0  0  0  0
  -89.0237   28.1883    0.2743 C   0  0  0  0  0  0  0  0  0  0  0  0
  -89.6888   26.9653    0.4767 C   0  0  0  0  0  0  0  0  0  0  0  0
  -89.1406   25.9553    1.2067 C   0  0  0  0  0  0  0  0  0  0  0  0
  -87.9054   26.1730    1.7434 C   0  0  0  0  0  0  0  0  0  0  0  0
  -87.1879   27.3661    1.5797 C   0  0  0  0  0  0  0  0  0  0  0  0
  -87.7594   28.3653    0.8414 C   0  0  0  0  0  0  0  0  0  0  0  0
  -84.2748   29.1343    2.4271 H   0  0  0  0  0  0  0  0  0  0  0  0
  -90.4485   31.3022   -1.7784 H   0  0  0  0  0  0  0  0  0  0  0  0
  -82.7202   30.9205    1.0216 C   0  0  0  0  0  0  0  0  0  0  0  0
  -83.9643   31.2880    1.5414 O   0  0  0  0  0  0  0  0  0  0  0  0
  -85.1115   33.2295   -0.0900 O   0  0  0  0  0  0  0  0  0  0  0  0
  -84.1649   33.3482   -1.1266 C   0  0  0  0  0  0  0  0  0  0  0  0
 21 22  1  0  0  0
 22  1  1  0  0  0
  1  2  2  0  0  0
  2  3  1  0  0  0
  2  4  1  0  0  0
  4  5  2  0  0  0
  5  6  1  0  0  0
  6  7  2  0  0  0
  7 23  1  0  0  0
 23 24  1  0  0  0
  6  8  1  0  0  0
  8  9  1  0  0  0
  9 10  1  0  0  0
 10 11  1  0  0  0
 11 12  1  0  0  0
 12 13  1  0  0  0
 13 14  2  0  0  0
 14 15  1  0  0  0
 15 16  2  0  0  0
 16 17  1  0  0  0
 17 18  2  0  0  0
  7  1  1  0  0  0
 18 13  1  0  0  0
 18  4  1  0  0  0
 11  5  1  0  0  0
  3 19  1  0  0  0
 10 20  1  0  0  0
M  END
> <minimizedAffinity>
-7.66650

> <CNNscore>
0.4656583071

> <CNNaffinity>
5.8355283737

> <CNN_VS>
2.7173621655

> <CNNaffinity_variance>
0.3373745084

$$$$
[H]Oc1c(OC([H])([H])[H])c(OC([H])([H])[H])c2c3c1-c1c([H])c([H])c([H])c([H])c1C([H])([H])[C@@]3([H])N([H])C([H])([H])C2([H])[H]


 24 27  0  0  0  0  0  0  0  0999 V2000
  -88.3457   28.9324    0.1955 C   0  0  0  0  0  0  0  0  0  0  0  0
  -87.0123   29.2187    0.4548 C   0  0  0  0  0  0  0  0  0  0  0  0
  -86.2856   28.1861    0.9840 O   0  0  0  0  0  0  0  0  0  0  0  0
  -86.5471   30.4813    0.1649 C   0  0  0  0  0  0  0  0  0  0  0  0
  -87.3646   31.4528   -0.3680 C   0  0  0  0  0  0  0  0  0  0  0  0
  -88.6942   31.1254   -0.6139 C   0  0  0  0  0  0  0  0  0  0  0  0
  -89.1979   29.8827   -0.3413 C   0  0  0  0  0  0  0  0  0  0  0  0
  -89.5612   32.1726   -1.1815 C   0  0  0  0  0  0  0  0  0  0  0  0
  -88.8731   33.1228   -2.0834 C   0  0  0  0  0  0  0  0  0  0  0  0
  -87.5263   33.4031   -1.8160 N   0  0  0  0  0  0  0  0  0  0  0  0
  -86.9452   32.8068   -0.6432 C   0  0  0  0  0  0  0  0  0  0  0  0
  -85.4890   33.0342   -0.6870 C   0  0  0  0  0  0  0  0  0  0  0  0
  -84.6584   32.0476    0.0091 C   0  0  0  0  0  0  0  0  0  0  0  0
  -83.3139   32.3687    0.2707 C   0  0  0  0  0  0  0  0  0  0  0  0
  -82.4613   31.4877    0.8630 C   0  0  0  0  0  0  0  0  0  0  0  0
  -82.9630   30.2645    1.1993 C   0  0  0  0  0  0  0  0  0  0  0  0
  -84.2913   29.8807    0.9683 C   0  0  0  0  0  0  0  0  0  0  0  0
  -85.1283   30.7834    0.3729 C   0  0  0  0  0  0  0  0  0  0  0  0
  -86.6339   27.2742    1.1892 H   0  0  0  0  0  0  0  0  0  0  0  0
  -87.3225   34.4397   -1.7571 H   0  0  0  0  0  0  0  0  0  0  0  0
  -88.8296   26.5847   -0.3985 C   0  0  0  0  0  0  0  0  0  0  0  0
  -88.8368   27.6736    0.4774 O   0  0  0  0  0  0  0  0  0  0  0  0
  -90.5308   29.6000   -0.6027 O   0  0  0  0  0  0  0  0  0  0  0  0
  -90.9171   29.1310   -1.8738 C   0  0  0  0  0  0  0  0  0  0  0  0
 21 22  1  0  0  0
 22  1  1  0  0  0
  1  2  2  0  0  0
  2  3  1  0  0  0
  2  4  1  0  0  0
  4  5  2  0  0  0
  5  6  1  0  0  0
  6  7  2  0  0  0
  7 23  1  0  0  0
 23 24  1  0  0  0
  6  8  1  0  0  0
  8  9  1  0  0  0
  9 10  1  0  0  0
 10 11  1  0  0  0
 11 12  1  0  0  0
 12 13  1  0  0  0
 13 14  2  0  0  0
 14 15  1  0  0  0
 15 16  2  0  0  0
 16 17  1  0  0  0
 17 18  2  0  0  0
  7  1  1  0  0  0
 18 13  1  0  0  0
 18  4  1  0  0  0
 11  5  1  0  0  0
  3 19  1  0  0  0
 10 20  1  0  0  0
M  END
> <minimizedAffinity>
-8.93904

> <CNNscore>
0.3892903626

> <CNNaffinity>
5.7428269386

> <CNN_VS>
2.2356271744

> <CNNaffinity_variance>
0.2100076377

$$$$
[H]Oc1c(OC([H])([H])[H])c(OC([H])([H])[H])c2c3c1-c1c([H])c([H])c([H])c([H])c1C([H])([H])[C@@]3([H])N([H])C([H])([H])C2([H])[H]


 24 27  0  0  0  0  0  0  0  0999 V2000
  -85.4688   30.7297    1.2656 C   0  0  0  0  0  0  0  0  0  0  0  0
  -85.8279   31.5612    0.2136 C   0  0  0  0  0  0  0  0  0  0  0  0
  -85.3263   32.8335    0.2774 O   0  0  0  0  0  0  0  0  0  0  0  0
  -86.6349   31.0495   -0.7772 C   0  0  0  0  0  0  0  0  0  0  0  0
  -87.0880   29.7495   -0.7469 C   0  0  0  0  0  0  0  0  0  0  0  0
  -86.7047   28.9487    0.3241 C   0  0  0  0  0  0  0  0  0  0  0  0
  -85.9034   29.4166    1.3299 C   0  0  0  0  0  0  0  0  0  0  0  0
  -87.1969   27.5603    0.3486 C   0  0  0  0  0  0  0  0  0  0  0  0
  -87.3766   26.9447   -0.9850 C   0  0  0  0  0  0  0  0  0  0  0  0
  -87.7357   27.7924   -2.0417 N   0  0  0  0  0  0  0  0  0  0  0  0
  -87.9768   29.1755   -1.7294 C   0  0  0  0  0  0  0  0  0  0  0  0
  -88.1005   29.9169   -2.9979 C   0  0  0  0  0  0  0  0  0  0  0  0
  -87.7357   31.3357   -2.9569 C   0  0  0  0  0  0  0  0  0  0  0  0
  -88.1235   32.1587   -4.0300 C   0  0  0  0  0  0  0  0  0  0  0  0
  -87.7776   33.4739   -4.0953 C   0  0  0  0  0  0  0  0  0  0  0  0
  -87.0310   33.9742   -3.0690 C   0  0  0  0  0  0  0  0  0  0  0  0
  -86.6124   33.2107   -1.9704 C   0  0  0  0  0  0  0  0  0  0  0  0
  -86.9732   31.8923   -1.9273 C   0  0  0  0  0  0  0  0  0  0  0  0
  -84.7411   33.1930    1.0009 H   0  0  0  0  0  0  0  0  0  0  0  0
  -88.5845   27.4534   -2.5747 H   0  0  0  0  0  0  0  0  0  0  0  0
  -85.1005   31.6682    3.5200 C   0  0  0  0  0  0  0  0  0  0  0  0
  -84.6605   31.2189    2.2719 O   0  0  0  0  0  0  0  0  0  0  0  0
  -85.5459   28.5823    2.3792 O   0  0  0  0  0  0  0  0  0  0  0  0
  -84.2651   27.9963    2.4105 C   0  0  0  0  0  0  0  0  0  0  0  0
 21 22  1  0  0  0
 22  1  1  0  0  0
  1  2  2  0  0  0
  2  3  1  0  0  0
  2  4  1  0  0  0
  4  5  2  0  0  0
  5  6  1  0  0  0
  6  7  2  0  0  0
  7 23  1  0  0  0
 23 24  1  0  0  0
  6  8  1  0  0  0
  8  9  1  0  0  0
  9 10  1  0  0  0
 10 11  1  0  0  0
 11 12  1  0  0  0
 12 13  1  0  0  0
 13 14  2  0  0  0
 14 15  1  0  0  0
 15 16  2  0  0  0
 16 17  1  0  0  0
 17 18  2  0  0  0
  7  1  1  0  0  0
 18 13  1  0  0  0
 18  4  1  0  0  0
 11  5  1  0  0  0
  3 19  1  0  0  0
 10 20  1  0  0  0
M  END
> <minimizedAffinity>
-7.73903

> <CNNscore>
0.3870555162

> <CNNaffinity>
5.7345757484

> <CNN_VS>
2.2195992470

> <CNNaffinity_variance>
0.1875443757

$$$$
[H]Oc1c(OC([H])([H])[H])c(OC([H])([H])[H])c2c3c1-c1c([H])c([H])c([H])c([H])c1C([H])([H])[C@@]3([H])N([H])C([H])([H])C2([H])[H]


 24 27  0  0  0  0  0  0  0  0999 V2000
  -85.0321   29.4274    1.5111 C   0  0  0  0  0  0  0  0  0  0  0  0
  -85.9025   28.4815    0.9869 C   0  0  0  0  0  0  0  0  0  0  0  0
  -85.8018   27.2297    1.5322 O   0  0  0  0  0  0  0  0  0  0  0  0
  -86.7694   28.8721   -0.0084 C   0  0  0  0  0  0  0  0  0  0  0  0
  -86.7903   30.1623   -0.4891 C   0  0  0  0  0  0  0  0  0  0  0  0
  -85.9028   31.0801    0.0633 C   0  0  0  0  0  0  0  0  0  0  0  0
  -85.0249   30.7346    1.0544 C   0  0  0  0  0  0  0  0  0  0  0  0
  -85.9313   32.4571   -0.4598 C   0  0  0  0  0  0  0  0  0  0  0  0
  -87.2634   32.9206   -0.9075 C   0  0  0  0  0  0  0  0  0  0  0  0
  -88.1367   31.9581   -1.4320 N   0  0  0  0  0  0  0  0  0  0  0  0
  -87.6400   30.6149   -1.5653 C   0  0  0  0  0  0  0  0  0  0  0  0
  -88.7762   29.7375   -1.9020 C   0  0  0  0  0  0  0  0  0  0  0  0
  -88.6561   28.3360   -1.4907 C   0  0  0  0  0  0  0  0  0  0  0  0
  -89.5426   27.3959   -2.0472 C   0  0  0  0  0  0  0  0  0  0  0  0
  -89.5337   26.0856   -1.6778 C   0  0  0  0  0  0  0  0  0  0  0  0
  -88.6219   25.7094   -0.7353 C   0  0  0  0  0  0  0  0  0  0  0  0
  -87.7102   26.5936   -0.1418 C   0  0  0  0  0  0  0  0  0  0  0  0
  -87.7382   27.9045   -0.5302 C   0  0  0  0  0  0  0  0  0  0  0  0
  -85.1695   26.9584    2.2546 H   0  0  0  0  0  0  0  0  0  0  0  0
  -88.5306   32.2269   -2.3765 H   0  0  0  0  0  0  0  0  0  0  0  0
  -82.8727   28.5361    2.3118 C   0  0  0  0  0  0  0  0  0  0  0  0
  -84.1528   29.0608    2.5099 O   0  0  0  0  0  0  0  0  0  0  0  0
  -84.1571   31.6830    1.5764 O   0  0  0  0  0  0  0  0  0  0  0  0
  -82.9078   31.9090    0.9657 C   0  0  0  0  0  0  0  0  0  0  0  0
 21 22  1  0  0  0
 22  1  1  0  0  0
  1  2  2  0  0  0
  2  3  1  0  0  0
  2  4  1  0  0  0
  4  5  2  0  0  0
  5  6  1  0  0  0
  6  7  2  0  0  0
  7 23  1  0  0  0
 23 24  1  0  0  0
  6  8  1  0  0  0
  8  9  1  0  0  0
  9 10  1  0  0  0
 10 11  1  0  0  0
 11 12  1  0  0  0
 12 13  1  0  0  0
 13 14  2  0  0  0
 14 15  1  0  0  0
 15 16  2  0  0  0
 16 17  1  0  0  0
 17 18  2  0  0  0
  7  1  1  0  0  0
 18 13  1  0  0  0
 18  4  1  0  0  0
 11  5  1  0  0  0
  3 19  1  0  0  0
 10 20  1  0  0  0
M  END
> <minimizedAffinity>
-7.74466

> <CNNscore>
0.3742240071

> <CNNaffinity>
5.7085828781

> <CNN_VS>
2.1362886429

> <CNNaffinity_variance>
0.1111107245

$$$$
[H]Oc1c(OC([H])([H])[H])c(OC([H])([H])[H])c2c3c1-c1c([H])c([H])c([H])c([H])c1C([H])([H])[C@@]3([H])N([H])C([H])([H])C2([H])[H]


 24 27  0  0  0  0  0  0  0  0999 V2000
  -88.6864   30.0408   -0.3448 C   0  0  0  0  0  0  0  0  0  0  0  0
  -87.5085   29.6312    0.2649 C   0  0  0  0  0  0  0  0  0  0  0  0
  -87.5555   28.3973    0.8561 O   0  0  0  0  0  0  0  0  0  0  0  0
  -86.4233   30.4769    0.2235 C   0  0  0  0  0  0  0  0  0  0  0  0
  -86.4808   31.7035   -0.3997 C   0  0  0  0  0  0  0  0  0  0  0  0
  -87.6793   32.0762   -0.9995 C   0  0  0  0  0  0  0  0  0  0  0  0
  -88.7821   31.2661   -0.9826 C   0  0  0  0  0  0  0  0  0  0  0  0
  -87.7313   33.3914   -1.6614 C   0  0  0  0  0  0  0  0  0  0  0  0
  -86.4542   33.8293   -2.2671 C   0  0  0  0  0  0  0  0  0  0  0  0
  -85.2702   33.4081   -1.6468 N   0  0  0  0  0  0  0  0  0  0  0  0
  -85.3923   32.6518   -0.4295 C   0  0  0  0  0  0  0  0  0  0  0  0
  -84.0618   32.1167   -0.0869 C   0  0  0  0  0  0  0  0  0  0  0  0
  -84.0439   30.8776    0.6954 C   0  0  0  0  0  0  0  0  0  0  0  0
  -82.8402   30.4926    1.3135 C   0  0  0  0  0  0  0  0  0  0  0  0
  -82.7247   29.3293    2.0115 C   0  0  0  0  0  0  0  0  0  0  0  0
  -83.8329   28.5378    2.0924 C   0  0  0  0  0  0  0  0  0  0  0  0
  -85.0622   28.8618    1.5017 C   0  0  0  0  0  0  0  0  0  0  0  0
  -85.1533   30.0360    0.8067 C   0  0  0  0  0  0  0  0  0  0  0  0
  -88.3484   27.7923    0.8790 H   0  0  0  0  0  0  0  0  0  0  0  0
  -84.6052   34.2045   -1.4391 H   0  0  0  0  0  0  0  0  0  0  0  0
  -90.8186   29.2607    0.6266 C   0  0  0  0  0  0  0  0  0  0  0  0
  -89.7891   29.2110   -0.3172 O   0  0  0  0  0  0  0  0  0  0  0  0
  -89.9573   31.6786   -1.5939 O   0  0  0  0  0  0  0  0  0  0  0  0
  -90.2641   31.2454   -2.8988 C   0  0  0  0  0  0  0  0  0  0  0  0
 21 22  1  0  0  0
 22  1  1  0  0  0
  1  2  2  0  0  0
  2  3  1  0  0  0
  2  4  1  0  0  0
  4  5  2  0  0  0
  5  6  1  0  0  0
  6  7  2  0  0  0
  7 23  1  0  0  0
 23 24  1  0  0  0
  6  8  1  0  0  0
  8  9  1  0  0  0
  9 10  1  0  0  0
 10 11  1  0  0  0
 11 12  1  0  0  0
 12 13  1  0  0  0
 13 14  2  0  0  0
 14 15  1  0  0  0
 15 16  2  0  0  0
 16 17  1  0  0  0
 17 18  2  0  0  0
  7  1  1  0  0  0
 18 13  1  0  0  0
 18  4  1  0  0  0
 11  5  1  0  0  0
  3 19  1  0  0  0
 10 20  1  0  0  0
M  END
> <minimizedAffinity>
-9.58731

> <CNNscore>
0.3566065729

> <CNNaffinity>
5.7707238197

> <CNN_VS>
2.0578780174

> <CNNaffinity_variance>
0.1597320288

$$$$
[H]Oc1c(OC([H])([H])[H])c(OC([H])([H])[H])c2c3c1-c1c([H])c([H])c([H])c([H])c1C([H])([H])[C@@]3([H])N([H])C([H])([H])C2([H])[H]


 24 27  0  0  0  0  0  0  0  0999 V2000
  -88.5028   33.2797   -3.0503 C   0  0  0  0  0  0  0  0  0  0  0  0
  -87.2944   33.2598   -2.3674 C   0  0  0  0  0  0  0  0  0  0  0  0
  -86.4712   34.3275   -2.6061 O   0  0  0  0  0  0  0  0  0  0  0  0
  -87.0343   32.1981   -1.5309 C   0  0  0  0  0  0  0  0  0  0  0  0
  -87.9337   31.1694   -1.3606 C   0  0  0  0  0  0  0  0  0  0  0  0
  -89.1335   31.2274   -2.0623 C   0  0  0  0  0  0  0  0  0  0  0  0
  -89.4328   32.2644   -2.9035 C   0  0  0  0  0  0  0  0  0  0  0  0
  -90.0878   30.1208   -1.8752 C   0  0  0  0  0  0  0  0  0  0  0  0
  -90.0685   29.5092   -0.5278 C   0  0  0  0  0  0  0  0  0  0  0  0
  -88.8449   29.4968    0.1555 N   0  0  0  0  0  0  0  0  0  0  0  0
  -87.6931   30.0072   -0.5382 C   0  0  0  0  0  0  0  0  0  0  0  0
  -86.5876   30.1211    0.4309 C   0  0  0  0  0  0  0  0  0  0  0  0
  -85.5752   31.1404    0.1415 C   0  0  0  0  0  0  0  0  0  0  0  0
  -84.3543   31.0893    0.8387 C   0  0  0  0  0  0  0  0  0  0  0  0
  -83.3838   32.0290    0.6689 C   0  0  0  0  0  0  0  0  0  0  0  0
  -83.6396   33.0372   -0.2139 C   0  0  0  0  0  0  0  0  0  0  0  0
  -84.8329   33.1472   -0.9412 C   0  0  0  0  0  0  0  0  0  0  0  0
  -85.7919   32.1905   -0.7539 C   0  0  0  0  0  0  0  0  0  0  0  0
  -86.6712   35.0923   -3.2144 H   0  0  0  0  0  0  0  0  0  0  0  0
  -88.5789   28.5366    0.5116 H   0  0  0  0  0  0  0  0  0  0  0  0
  -89.5327   35.4663   -3.5572 C   0  0  0  0  0  0  0  0  0  0  0  0
  -88.7876   34.3333   -3.8954 O   0  0  0  0  0  0  0  0  0  0  0  0
  -90.6420   32.2812   -3.5836 O   0  0  0  0  0  0  0  0  0  0  0  0
  -90.6943   31.9053   -4.9404 C   0  0  0  0  0  0  0  0  0  0  0  0
 21 22  1  0  0  0
 22  1  1  0  0  0
  1  2  2  0  0  0
  2  3  1  0  0  0
  2  4  1  0  0  0
  4  5  2  0  0  0
  5  6  1  0  0  0
  6  7  2  0  0  0
  7 23  1  0  0  0
 23 24  1  0  0  0
  6  8  1  0  0  0
  8  9  1  0  0  0
  9 10  1  0  0  0
 10 11  1  0  0  0
 11 12  1  0  0  0
 12 13  1  0  0  0
 13 14  2  0  0  0
 14 15  1  0  0  0
 15 16  2  0  0  0
 16 17  1  0  0  0
 17 18  2  0  0  0
  7  1  1  0  0  0
 18 13  1  0  0  0
 18  4  1  0  0  0
 11  5  1  0  0  0
  3 19  1  0  0  0
 10 20  1  0  0  0
M  END
> <minimizedAffinity>
-7.23500

> <CNNscore>
0.3290091157

> <CNNaffinity>
5.4018902779

> <CNN_VS>
1.7772711515

> <CNNaffinity_variance>
0.1526867449

$$$$
[H]Oc1c(OC([H])([H])[H])c(OC([H])([H])[H])c2c3c1-c1c([H])c([H])c([H])c([H])c1C([H])([H])[C@@]3([H])N([H])C([H])([H])C2([H])[H]


 24 27  0  0  0  0  0  0  0  0999 V2000
  -87.4242   32.3842   -1.1312 C   0  0  0  0  0  0  0  0  0  0  0  0
  -86.2858   31.9038   -0.4986 C   0  0  0  0  0  0  0  0  0  0  0  0
  -85.2048   32.7435   -0.5248 O   0  0  0  0  0  0  0  0  0  0  0  0
  -86.3396   30.6586    0.0858 C   0  0  0  0  0  0  0  0  0  0  0  0
  -87.4817   29.8900    0.0556 C   0  0  0  0  0  0  0  0  0  0  0  0
  -88.6012   30.4081   -0.5876 C   0  0  0  0  0  0  0  0  0  0  0  0
  -88.5916   31.6411   -1.1809 C   0  0  0  0  0  0  0  0  0  0  0  0
  -89.8172   29.5769   -0.6167 C   0  0  0  0  0  0  0  0  0  0  0  0
  -90.0021   28.7104    0.5686 C   0  0  0  0  0  0  0  0  0  0  0  0
  -88.8472   28.2330    1.2028 N   0  0  0  0  0  0  0  0  0  0  0  0
  -87.5801   28.5584    0.6053 C   0  0  0  0  0  0  0  0  0  0  0  0
  -86.5153   28.1703    1.5485 C   0  0  0  0  0  0  0  0  0  0  0  0
  -85.2627   28.9257    1.4577 C   0  0  0  0  0  0  0  0  0  0  0  0
  -84.1209   28.4095    2.0973 C   0  0  0  0  0  0  0  0  0  0  0  0
  -82.9336   29.0757    2.1074 C   0  0  0  0  0  0  0  0  0  0  0  0
  -82.8880   30.2790    1.4664 C   0  0  0  0  0  0  0  0  0  0  0  0
  -83.9869   30.8497    0.8092 C   0  0  0  0  0  0  0  0  0  0  0  0
  -85.1683   30.1609    0.8122 C   0  0  0  0  0  0  0  0  0  0  0  0
  -85.1780   33.6450   -0.9511 H   0  0  0  0  0  0  0  0  0  0  0  0
  -88.8531   27.1838    1.3395 H   0  0  0  0  0  0  0  0  0  0  0  0
  -86.9644   33.8987   -3.0268 C   0  0  0  0  0  0  0  0  0  0  0  0
  -87.3961   33.6299   -1.7251 O   0  0  0  0  0  0  0  0  0  0  0  0
  -89.7316   32.1183   -1.8114 O   0  0  0  0  0  0  0  0  0  0  0  0
  -89.9609   31.8272   -3.1706 C   0  0  0  0  0  0  0  0  0  0  0  0
 21 22  1  0  0  0
 22  1  1  0  0  0
  1  2  2  0  0  0
  2  3  1  0  0  0
  2  4  1  0  0  0
  4  5  2  0  0  0
  5  6  1  0  0  0
  6  7  2  0  0  0
  7 23  1  0  0  0
 23 24  1  0  0  0
  6  8  1  0  0  0
  8  9  1  0  0  0
  9 10  1  0  0  0
 10 11  1  0  0  0
 11 12  1  0  0  0
 12 13  1  0  0  0
 13 14  2  0  0  0
 14 15  1  0  0  0
 15 16  2  0  0  0
 16 17  1  0  0  0
 17 18  2  0  0  0
  7  1  1  0  0  0
 18 13  1  0  0  0
 18  4  1  0  0  0
 11  5  1  0  0  0
  3 19  1  0  0  0
 10 20  1  0  0  0
M  END
> <minimizedAffinity>
-8.98128

> <CNNscore>
0.3045488596

> <CNNaffinity>
5.6453089714

> <CNN_VS>
1.7192723751

> <CNNaffinity_variance>
0.1361590028

$$$$
[H]c1c([H])c([H])c(N([H])[C@@]2([H])c3c([H])c(-c4c([H])c([H])c(C(F)(F)F)c([H])c4[H])c([H])c([H])c3N(C(=O)C([H])([H])[H])[C@@]([H])(C([H])([H])[H])C2([H])[H])c([H])c1[H]


 32 35  0  0  0  0  0  0  0  0999 V2000
  -91.4204   22.4212   -2.6574 C   0  0  0  0  0  0  0  0  0  0  0  0
  -92.6400   23.2265   -2.5130 C   0  0  0  0  0  0  0  0  0  0  0  0
  -93.7498   22.5949   -2.4546 O   0  0  0  0  0  0  0  0  0  0  0  0
  -92.6425   24.6344   -2.4455 N   0  0  0  0  0  0  0  0  0  0  0  0
  -91.5281   25.4797   -2.2551 C   0  0  0  0  0  0  0  0  0  0  0  0
  -90.4481   25.0220   -1.5086 C   0  0  0  0  0  0  0  0  0  0  0  0
  -89.3492   25.8408   -1.4050 C   0  0  0  0  0  0  0  0  0  0  0  0
  -89.2436   27.0881   -1.9901 C   0  0  0  0  0  0  0  0  0  0  0  0
  -90.3300   27.5158   -2.7147 C   0  0  0  0  0  0  0  0  0  0  0  0
  -91.4705   26.7170   -2.8487 C   0  0  0  0  0  0  0  0  0  0  0  0
  -92.5899   27.3116   -3.5903 C   0  0  0  0  0  0  0  0  0  0  0  0
  -93.7509   26.3712   -3.7595 C   0  0  0  0  0  0  0  0  0  0  0  0
  -93.9073   25.3628   -2.6716 C   0  0  0  0  0  0  0  0  0  0  0  0
  -94.4896   25.8190   -1.3867 C   0  0  0  0  0  0  0  0  0  0  0  0
  -88.0358   27.9134   -1.8830 C   0  0  0  0  0  0  0  0  0  0  0  0
  -87.8167   28.6849   -0.7496 C   0  0  0  0  0  0  0  0  0  0  0  0
  -86.6800   29.4396   -0.5641 C   0  0  0  0  0  0  0  0  0  0  0  0
  -85.7121   29.4304   -1.5588 C   0  0  0  0  0  0  0  0  0  0  0  0
  -85.8965   28.6789   -2.6989 C   0  0  0  0  0  0  0  0  0  0  0  0
  -87.0634   27.9262   -2.8472 C   0  0  0  0  0  0  0  0  0  0  0  0
  -84.4712   30.2539   -1.3293 C   0  0  0  0  0  0  0  0  0  0  0  0
  -84.1295   30.2324    0.0128 F   0  0  0  0  0  0  0  0  0  0  0  0
  -84.6323   31.5532   -1.7051 F   0  0  0  0  0  0  0  0  0  0  0  0
  -83.4316   29.6060   -1.9910 F   0  0  0  0  0  0  0  0  0  0  0  0
  -93.0355   28.5019   -2.8374 N   0  0  0  0  0  0  0  0  0  0  0  0
  -93.9247   28.9461   -3.1559 H   0  0  0  0  0  0  0  0  0  0  0  0
  -92.2735   29.0024   -1.7442 C   0  0  0  0  0  0  0  0  0  0  0  0
  -92.1211   30.3688   -1.5703 C   0  0  0  0  0  0  0  0  0  0  0  0
  -91.4290   30.8131   -0.4700 C   0  0  0  0  0  0  0  0  0  0  0  0
  -90.8740   29.9843    0.4723 C   0  0  0  0  0  0  0  0  0  0  0  0
  -91.0168   28.6123    0.3109 C   0  0  0  0  0  0  0  0  0  0  0  0
  -91.7097   28.1526   -0.7874 C   0  0  0  0  0  0  0  0  0  0  0  0
  1  2  1  0  0  0
  2  3  2  0  0  0
  2  4  1  0  0  0
  4  5  1  0  0  0
  5  6  2  0  0  0
  6  7  1  0  0  0
  7  8  2  0  0  0
  8 15  1  0  0  0
 15 16  2  0  0  0
 16 17  1  0  0  0
 17 18  2  0  0  0
 18 21  1  0  0  0
 21 22  1  0  0  0
 21 23  1  0  0  0
 21 24  1  0  0  0
 18 19  1  0  0  0
 19 20  2  0  0  0
  8  9  1  0  0  0
  9 10  2  0  0  0
 10 11  1  0  0  0
 11 25  1  0  0  0
 25 27  1  0  0  0
 27 28  2  0  0  0
 28 29  1  0  0  0
 29 30  2  0  0  0
 30 31  1  0  0  0
 31 32  2  0  0  0
 11 12  1  0  0  0
 12 13  1  0  0  0
 13 14  1  0  0  0
 13  4  1  0  0  0
 10  5  1  0  0  0
 32 27  1  0  0  0
 20 15  1  0  0  0
 25 26  1  0  0  0
M  END
> <minimizedAffinity>
7.64570

> <CNNscore>
0.3993758857

> <CNNaffinity>
5.9099159241

> <CNN_VS>
2.3602778912

> <CNNaffinity_variance>
1.5150444508

$$$$
[H]c1c([H])c([H])c(N([H])[C@@]2([H])c3c([H])c(-c4c([H])c([H])c(C(F)(F)F)c([H])c4[H])c([H])c([H])c3N(C(=O)C([H])([H])[H])[C@@]([H])(C([H])([H])[H])C2([H])[H])c([H])c1[H]


 32 35  0  0  0  0  0  0  0  0999 V2000
  -89.2565   28.2223    4.8301 C   0  0  0  0  0  0  0  0  0  0  0  0
  -88.5638   28.8431    3.6936 C   0  0  0  0  0  0  0  0  0  0  0  0
  -87.7658   29.8068    3.9554 O   0  0  0  0  0  0  0  0  0  0  0  0
  -88.7415   28.4381    2.3553 N   0  0  0  0  0  0  0  0  0  0  0  0
  -89.3795   27.2647    1.8982 C   0  0  0  0  0  0  0  0  0  0  0  0
  -89.3395   26.1193    2.6854 C   0  0  0  0  0  0  0  0  0  0  0  0
  -90.0333   25.0170    2.2466 C   0  0  0  0  0  0  0  0  0  0  0  0
  -90.7665   24.9676    1.0764 C   0  0  0  0  0  0  0  0  0  0  0  0
  -90.7802   26.1123    0.3165 C   0  0  0  0  0  0  0  0  0  0  0  0
  -90.0899   27.2591    0.7227 C   0  0  0  0  0  0  0  0  0  0  0  0
  -90.1255   28.3956   -0.2066 C   0  0  0  0  0  0  0  0  0  0  0  0
  -89.4278   29.6159    0.3271 C   0  0  0  0  0  0  0  0  0  0  0  0
  -88.3044   29.3371    1.2679 C   0  0  0  0  0  0  0  0  0  0  0  0
  -87.0182   28.8787    0.6901 C   0  0  0  0  0  0  0  0  0  0  0  0
  -91.5220   23.7796    0.6649 C   0  0  0  0  0  0  0  0  0  0  0  0
  -90.8978   22.7727   -0.0594 C   0  0  0  0  0  0  0  0  0  0  0  0
  -91.5354   21.6099   -0.4304 C   0  0  0  0  0  0  0  0  0  0  0  0
  -92.8639   21.4406   -0.0661 C   0  0  0  0  0  0  0  0  0  0  0  0
  -93.5168   22.4199    0.6503 C   0  0  0  0  0  0  0  0  0  0  0  0
  -92.8332   23.5840    1.0080 C   0  0  0  0  0  0  0  0  0  0  0  0
  -93.5379   20.1555   -0.4721 C   0  0  0  0  0  0  0  0  0  0  0  0
  -94.5303   19.8325    0.4384 F   0  0  0  0  0  0  0  0  0  0  0  0
  -92.6672   19.1101   -0.5390 F   0  0  0  0  0  0  0  0  0  0  0  0
  -94.1980   20.4100   -1.6713 F   0  0  0  0  0  0  0  0  0  0  0  0
  -89.4637   27.9656   -1.4554 N   0  0  0  0  0  0  0  0  0  0  0  0
  -89.1363   26.9750   -1.4895 H   0  0  0  0  0  0  0  0  0  0  0  0
  -89.2866   28.8726   -2.5382 C   0  0  0  0  0  0  0  0  0  0  0  0
  -90.3859   29.3409   -3.2401 C   0  0  0  0  0  0  0  0  0  0  0  0
  -90.1785   30.2607   -4.2390 C   0  0  0  0  0  0  0  0  0  0  0  0
  -88.9438   30.7463   -4.5892 C   0  0  0  0  0  0  0  0  0  0  0  0
  -87.8322   30.2852   -3.8961 C   0  0  0  0  0  0  0  0  0  0  0  0
  -88.0256   29.3634   -2.8907 C   0  0  0  0  0  0  0  0  0  0  0  0
  1  2  1  0  0  0
  2  3  2  0  0  0
  2  4  1  0  0  0
  4  5  1  0  0  0
  5  6  2  0  0  0
  6  7  1  0  0  0
  7  8  2  0  0  0
  8 15  1  0  0  0
 15 16  2  0  0  0
 16 17  1  0  0  0
 17 18  2  0  0  0
 18 21  1  0  0  0
 21 22  1  0  0  0
 21 23  1  0  0  0
 21 24  1  0  0  0
 18 19  1  0  0  0
 19 20  2  0  0  0
  8  9  1  0  0  0
  9 10  2  0  0  0
 10 11  1  0  0  0
 11 25  1  0  0  0
 25 27  1  0  0  0
 27 28  2  0  0  0
 28 29  1  0  0  0
 29 30  2  0  0  0
 30 31  1  0  0  0
 31 32  2  0  0  0
 11 12  1  0  0  0
 12 13  1  0  0  0
 13 14  1  0  0  0
 13  4  1  0  0  0
 10  5  1  0  0  0
 32 27  1  0  0  0
 20 15  1  0  0  0
 25 26  1  0  0  0
M  END
> <minimizedAffinity>
0.67171

> <CNNscore>
0.3962581456

> <CNNaffinity>
5.7270998955

> <CNN_VS>
2.2694098949

> <CNNaffinity_variance>
2.4712066650

$$$$
[H]c1c([H])c([H])c(N([H])[C@@]2([H])c3c([H])c(-c4c([H])c([H])c(C(F)(F)F)c([H])c4[H])c([H])c([H])c3N(C(=O)C([H])([H])[H])[C@@]([H])(C([H])([H])[H])C2([H])[H])c([H])c1[H]


 32 35  0  0  0  0  0  0  0  0999 V2000
  -94.1624   23.8953   -1.3601 C   0  0  0  0  0  0  0  0  0  0  0  0
  -93.7305   25.2458   -1.7430 C   0  0  0  0  0  0  0  0  0  0  0  0
  -94.4247   25.8478   -2.6317 O   0  0  0  0  0  0  0  0  0  0  0  0
  -92.6046   25.8907   -1.1924 N   0  0  0  0  0  0  0  0  0  0  0  0
  -91.8699   25.4967   -0.0532 C   0  0  0  0  0  0  0  0  0  0  0  0
  -92.5214   24.8289    0.9776 C   0  0  0  0  0  0  0  0  0  0  0  0
  -91.7629   24.3936    2.0378 C   0  0  0  0  0  0  0  0  0  0  0  0
  -90.3978   24.5751    2.1512 C   0  0  0  0  0  0  0  0  0  0  0  0
  -89.7840   25.2452    1.1206 C   0  0  0  0  0  0  0  0  0  0  0  0
  -90.5144   25.7063    0.0203 C   0  0  0  0  0  0  0  0  0  0  0  0
  -89.7576   26.4661   -0.9829 C   0  0  0  0  0  0  0  0  0  0  0  0
  -90.5883   26.8646   -2.1711 C   0  0  0  0  0  0  0  0  0  0  0  0
  -92.0385   27.0657   -1.8857 C   0  0  0  0  0  0  0  0  0  0  0  0
  -92.4406   28.3216   -1.2082 C   0  0  0  0  0  0  0  0  0  0  0  0
  -89.6221   24.0611    3.2850 C   0  0  0  0  0  0  0  0  0  0  0  0
  -88.9684   24.9401    4.1382 C   0  0  0  0  0  0  0  0  0  0  0  0
  -88.2682   24.5260    5.2492 C   0  0  0  0  0  0  0  0  0  0  0  0
  -88.2112   23.1668    5.5246 C   0  0  0  0  0  0  0  0  0  0  0  0
  -88.8454   22.2647    4.6984 C   0  0  0  0  0  0  0  0  0  0  0  0
  -89.5461   22.7265    3.5822 C   0  0  0  0  0  0  0  0  0  0  0  0
  -87.4499   22.7372    6.7520 C   0  0  0  0  0  0  0  0  0  0  0  0
  -87.9807   23.3470    7.8766 F   0  0  0  0  0  0  0  0  0  0  0  0
  -86.1273   23.0553    6.6815 F   0  0  0  0  0  0  0  0  0  0  0  0
  -87.6887   21.3755    6.9162 F   0  0  0  0  0  0  0  0  0  0  0  0
  -89.2437   27.6824   -0.3203 N   0  0  0  0  0  0  0  0  0  0  0  0
  -89.7277   28.5772   -0.5536 H   0  0  0  0  0  0  0  0  0  0  0  0
  -88.1423   27.6146    0.5788 C   0  0  0  0  0  0  0  0  0  0  0  0
  -88.3130   27.9440    1.9140 C   0  0  0  0  0  0  0  0  0  0  0  0
  -87.2405   27.8084    2.7616 C   0  0  0  0  0  0  0  0  0  0  0  0
  -86.0029   27.3666    2.3668 C   0  0  0  0  0  0  0  0  0  0  0  0
  -85.8156   27.0341    1.0314 C   0  0  0  0  0  0  0  0  0  0  0  0
  -86.8830   27.1641    0.1703 C   0  0  0  0  0  0  0  0  0  0  0  0
  1  2  1  0  0  0
  2  3  2  0  0  0
  2  4  1  0  0  0
  4  5  1  0  0  0
  5  6  2  0  0  0
  6  7  1  0  0  0
  7  8  2  0  0  0
  8 15  1  0  0  0
 15 16  2  0  0  0
 16 17  1  0  0  0
 17 18  2  0  0  0
 18 21  1  0  0  0
 21 22  1  0  0  0
 21 23  1  0  0  0
 21 24  1  0  0  0
 18 19  1  0  0  0
 19 20  2  0  0  0
  8  9  1  0  0  0
  9 10  2  0  0  0
 10 11  1  0  0  0
 11 25  1  0  0  0
 25 27  1  0  0  0
 27 28  2  0  0  0
 28 29  1  0  0  0
 29 30  2  0  0  0
 30 31  1  0  0  0
 31 32  2  0  0  0
 11 12  1  0  0  0
 12 13  1  0  0  0
 13 14  1  0  0  0
 13  4  1  0  0  0
 10  5  1  0  0  0
 32 27  1  0  0  0
 20 15  1  0  0  0
 25 26  1  0  0  0
M  END
> <minimizedAffinity>
-4.65435

> <CNNscore>
0.3404134512

> <CNNaffinity>
5.6612439156

> <CNN_VS>
1.9271636009

> <CNNaffinity_variance>
1.2516273260

$$$$
[H]c1c([H])c([H])c(N([H])[C@@]2([H])c3c([H])c(-c4c([H])c([H])c(C(F)(F)F)c([H])c4[H])c([H])c([H])c3N(C(=O)C([H])([H])[H])[C@@]([H])(C([H])([H])[H])C2([H])[H])c([H])c1[H]


 32 35  0  0  0  0  0  0  0  0999 V2000
  -83.0533   29.0548    1.9603 C   0  0  0  0  0  0  0  0  0  0  0  0
  -84.1278   28.0881    2.2205 C   0  0  0  0  0  0  0  0  0  0  0  0
  -83.8713   27.1405    3.0391 O   0  0  0  0  0  0  0  0  0  0  0  0
  -85.3990   28.1523    1.6150 N   0  0  0  0  0  0  0  0  0  0  0  0
  -85.9417   29.2327    0.8864 C   0  0  0  0  0  0  0  0  0  0  0  0
  -85.5616   30.5301    1.2114 C   0  0  0  0  0  0  0  0  0  0  0  0
  -86.0503   31.5533    0.4348 C   0  0  0  0  0  0  0  0  0  0  0  0
  -86.8944   31.3823   -0.6457 C   0  0  0  0  0  0  0  0  0  0  0  0
  -87.2582   30.0897   -0.9369 C   0  0  0  0  0  0  0  0  0  0  0  0
  -86.7856   29.0158   -0.1754 C   0  0  0  0  0  0  0  0  0  0  0  0
  -87.2984   27.6899   -0.5435 C   0  0  0  0  0  0  0  0  0  0  0  0
  -86.6919   26.5773    0.2660 C   0  0  0  0  0  0  0  0  0  0  0  0
  -86.2705   26.9601    1.6447 C   0  0  0  0  0  0  0  0  0  0  0  0
  -87.3279   27.1058    2.6737 C   0  0  0  0  0  0  0  0  0  0  0  0
  -87.3629   32.5018   -1.4695 C   0  0  0  0  0  0  0  0  0  0  0  0
  -88.7211   32.6799   -1.6966 C   0  0  0  0  0  0  0  0  0  0  0  0
  -89.2289   33.7388   -2.4157 C   0  0  0  0  0  0  0  0  0  0  0  0
  -88.3403   34.6670   -2.9402 C   0  0  0  0  0  0  0  0  0  0  0  0
  -86.9852   34.5210   -2.7377 C   0  0  0  0  0  0  0  0  0  0  0  0
  -86.5114   33.4333   -2.0011 C   0  0  0  0  0  0  0  0  0  0  0  0
  -88.9188   35.8239   -3.7132 C   0  0  0  0  0  0  0  0  0  0  0  0
  -90.2963   35.8475   -3.5710 F   0  0  0  0  0  0  0  0  0  0  0  0
  -88.6309   35.7568   -5.0429 F   0  0  0  0  0  0  0  0  0  0  0  0
  -88.4588   36.9862   -3.1002 F   0  0  0  0  0  0  0  0  0  0  0  0
  -88.7597   27.7061   -0.3274 N   0  0  0  0  0  0  0  0  0  0  0  0
  -89.0860   28.0202    0.6130 H   0  0  0  0  0  0  0  0  0  0  0  0
  -89.6553   27.3041   -1.3583 C   0  0  0  0  0  0  0  0  0  0  0  0
  -89.8651   25.9579   -1.6115 C   0  0  0  0  0  0  0  0  0  0  0  0
  -90.7816   25.6103   -2.5738 C   0  0  0  0  0  0  0  0  0  0  0  0
  -91.5053   26.5175   -3.3060 C   0  0  0  0  0  0  0  0  0  0  0  0
  -91.3049   27.8705   -3.0649 C   0  0  0  0  0  0  0  0  0  0  0  0
  -90.3896   28.2335   -2.1016 C   0  0  0  0  0  0  0  0  0  0  0  0
  1  2  1  0  0  0
  2  3  2  0  0  0
  2  4  1  0  0  0
  4  5  1  0  0  0
  5  6  2  0  0  0
  6  7  1  0  0  0
  7  8  2  0  0  0
  8 15  1  0  0  0
 15 16  2  0  0  0
 16 17  1  0  0  0
 17 18  2  0  0  0
 18 21  1  0  0  0
 21 22  1  0  0  0
 21 23  1  0  0  0
 21 24  1  0  0  0
 18 19  1  0  0  0
 19 20  2  0  0  0
  8  9  1  0  0  0
  9 10  2  0  0  0
 10 11  1  0  0  0
 11 25  1  0  0  0
 25 27  1  0  0  0
 27 28  2  0  0  0
 28 29  1  0  0  0
 29 30  2  0  0  0
 30 31  1  0  0  0
 31 32  2  0  0  0
 11 12  1  0  0  0
 12 13  1  0  0  0
 13 14  1  0  0  0
 13  4  1  0  0  0
 10  5  1  0  0  0
 32 27  1  0  0  0
 20 15  1  0  0  0
 25 26  1  0  0  0
M  END
> <minimizedAffinity>
-9.91330

> <CNNscore>
0.3128064573

> <CNNaffinity>
6.5434288979

> <CNN_VS>
2.0468268394

> <CNNaffinity_variance>
0.2800228000

$$$$
[H]c1c([H])c([H])c(N([H])[C@@]2([H])c3c([H])c(-c4c([H])c([H])c(C(F)(F)F)c([H])c4[H])c([H])c([H])c3N(C(=O)C([H])([H])[H])[C@@]([H])(C([H])([H])[H])C2([H])[H])c([H])c1[H]


 32 35  0  0  0  0  0  0  0  0999 V2000
  -91.4853   30.4953   -4.5803 C   0  0  0  0  0  0  0  0  0  0  0  0
  -90.6446   31.6760   -4.3436 C   0  0  0  0  0  0  0  0  0  0  0  0
  -90.7201   32.6238   -5.1980 O   0  0  0  0  0  0  0  0  0  0  0  0
  -89.7711   31.8048   -3.2449 N   0  0  0  0  0  0  0  0  0  0  0  0
  -89.7265   30.9907   -2.0925 C   0  0  0  0  0  0  0  0  0  0  0  0
  -90.8972   30.3962   -1.6352 C   0  0  0  0  0  0  0  0  0  0  0  0
  -90.8058   29.5506   -0.5557 C   0  0  0  0  0  0  0  0  0  0  0  0
  -89.6312   29.2514    0.1078 C   0  0  0  0  0  0  0  0  0  0  0  0
  -88.4928   29.8604   -0.3626 C   0  0  0  0  0  0  0  0  0  0  0  0
  -88.5365   30.7281   -1.4589 C   0  0  0  0  0  0  0  0  0  0  0  0
  -87.2665   31.3683   -1.8248 C   0  0  0  0  0  0  0  0  0  0  0  0
  -87.3717   32.2270   -3.0546 C   0  0  0  0  0  0  0  0  0  0  0  0
  -88.7140   32.8357   -3.2838 C   0  0  0  0  0  0  0  0  0  0  0  0
  -89.0902   34.0077   -2.4574 C   0  0  0  0  0  0  0  0  0  0  0  0
  -89.5748   28.3137    1.2343 C   0  0  0  0  0  0  0  0  0  0  0  0
  -90.6406   28.2226    2.1196 C   0  0  0  0  0  0  0  0  0  0  0  0
  -90.6728   27.3270    3.1651 C   0  0  0  0  0  0  0  0  0  0  0  0
  -89.5874   26.4805    3.3426 C   0  0  0  0  0  0  0  0  0  0  0  0
  -88.5106   26.5444    2.4854 C   0  0  0  0  0  0  0  0  0  0  0  0
  -88.5182   27.4664    1.4365 C   0  0  0  0  0  0  0  0  0  0  0  0
  -89.6495   25.5004    4.4855 C   0  0  0  0  0  0  0  0  0  0  0  0
  -89.7669   26.1797    5.6868 F   0  0  0  0  0  0  0  0  0  0  0  0
  -88.5430   24.7087    4.5524 F   0  0  0  0  0  0  0  0  0  0  0  0
  -90.8372   24.7887    4.3399 F   0  0  0  0  0  0  0  0  0  0  0  0
  -86.8494   32.2066   -0.6821 N   0  0  0  0  0  0  0  0  0  0  0  0
  -87.5702   32.8547   -0.2949 H   0  0  0  0  0  0  0  0  0  0  0  0
  -85.5284   32.1230   -0.1583 C   0  0  0  0  0  0  0  0  0  0  0  0
  -85.2413   31.2353    0.8663 C   0  0  0  0  0  0  0  0  0  0  0  0
  -83.9424   31.1415    1.3034 C   0  0  0  0  0  0  0  0  0  0  0  0
  -82.9054   31.8774    0.7876 C   0  0  0  0  0  0  0  0  0  0  0  0
  -83.1776   32.7726   -0.2387 C   0  0  0  0  0  0  0  0  0  0  0  0
  -84.4758   32.8760   -0.6878 C   0  0  0  0  0  0  0  0  0  0  0  0
  1  2  1  0  0  0
  2  3  2  0  0  0
  2  4  1  0  0  0
  4  5  1  0  0  0
  5  6  2  0  0  0
  6  7  1  0  0  0
  7  8  2  0  0  0
  8 15  1  0  0  0
 15 16  2  0  0  0
 16 17  1  0  0  0
 17 18  2  0  0  0
 18 21  1  0  0  0
 21 22  1  0  0  0
 21 23  1  0  0  0
 21 24  1  0  0  0
 18 19  1  0  0  0
 19 20  2  0  0  0
  8  9  1  0  0  0
  9 10  2  0  0  0
 10 11  1  0  0  0
 11 25  1  0  0  0
 25 27  1  0  0  0
 27 28  2  0  0  0
 28 29  1  0  0  0
 29 30  2  0  0  0
 30 31  1  0  0  0
 31 32  2  0  0  0
 11 12  1  0  0  0
 12 13  1  0  0  0
 13 14  1  0  0  0
 13  4  1  0  0  0
 10  5  1  0  0  0
 32 27  1  0  0  0
 20 15  1  0  0  0
 25 26  1  0  0  0
M  END
> <minimizedAffinity>
-9.90778

> <CNNscore>
0.2840752602

> <CNNaffinity>
6.3694581985

> <CNN_VS>
1.8094054461

> <CNNaffinity_variance>
0.2154758722

$$$$
[H]c1c([H])c([H])c(N([H])[C@@]2([H])c3c([H])c(-c4c([H])c([H])c(C(F)(F)F)c([H])c4[H])c([H])c([H])c3N(C(=O)C([H])([H])[H])[C@@]([H])(C([H])([H])[H])C2([H])[H])c([H])c1[H]


 32 35  0  0  0  0  0  0  0  0999 V2000
  -89.8244   37.7987   -3.9794 C   0  0  0  0  0  0  0  0  0  0  0  0
  -90.3797   36.7839   -4.8841 C   0  0  0  0  0  0  0  0  0  0  0  0
  -91.1451   37.1971   -5.8209 O   0  0  0  0  0  0  0  0  0  0  0  0
  -90.1189   35.4040   -4.7637 N   0  0  0  0  0  0  0  0  0  0  0  0
  -89.1317   34.7907   -3.9625 C   0  0  0  0  0  0  0  0  0  0  0  0
  -87.9453   35.4696   -3.7081 C   0  0  0  0  0  0  0  0  0  0  0  0
  -87.0372   34.8764   -2.8640 C   0  0  0  0  0  0  0  0  0  0  0  0
  -87.2208   33.6513   -2.2519 C   0  0  0  0  0  0  0  0  0  0  0  0
  -88.3994   33.0015   -2.5291 C   0  0  0  0  0  0  0  0  0  0  0  0
  -89.3540   33.5662   -3.3814 C   0  0  0  0  0  0  0  0  0  0  0  0
  -90.5415   32.7457   -3.6522 C   0  0  0  0  0  0  0  0  0  0  0  0
  -91.5571   33.4443   -4.5133 C   0  0  0  0  0  0  0  0  0  0  0  0
  -90.9930   34.4431   -5.4668 C   0  0  0  0  0  0  0  0  0  0  0  0
  -90.3347   33.9312   -6.6927 C   0  0  0  0  0  0  0  0  0  0  0  0
  -86.2391   33.0724   -1.3286 C   0  0  0  0  0  0  0  0  0  0  0  0
  -86.6128   32.0535   -0.4625 C   0  0  0  0  0  0  0  0  0  0  0  0
  -85.7284   31.4322    0.3907 C   0  0  0  0  0  0  0  0  0  0  0  0
  -84.4042   31.8479    0.3860 C   0  0  0  0  0  0  0  0  0  0  0  0
  -83.9976   32.8583   -0.4580 C   0  0  0  0  0  0  0  0  0  0  0  0
  -84.9262   33.4615   -1.3089 C   0  0  0  0  0  0  0  0  0  0  0  0
  -83.4515   31.1458    1.3189 C   0  0  0  0  0  0  0  0  0  0  0  0
  -82.1889   31.7059    1.2168 F   0  0  0  0  0  0  0  0  0  0  0  0
  -83.3477   29.8143    1.0509 F   0  0  0  0  0  0  0  0  0  0  0  0
  -83.8808   31.4230    2.6140 F   0  0  0  0  0  0  0  0  0  0  0  0
  -90.0842   31.5202   -4.3387 N   0  0  0  0  0  0  0  0  0  0  0  0
  -90.1149   31.5340   -5.3819 H   0  0  0  0  0  0  0  0  0  0  0  0
  -89.6366   30.3909   -3.5966 C   0  0  0  0  0  0  0  0  0  0  0  0
  -90.5489   29.5973   -2.9198 C   0  0  0  0  0  0  0  0  0  0  0  0
  -90.0843   28.4827   -2.2649 C   0  0  0  0  0  0  0  0  0  0  0  0
  -88.7656   28.1046   -2.2367 C   0  0  0  0  0  0  0  0  0  0  0  0
  -87.8389   28.8908   -2.9089 C   0  0  0  0  0  0  0  0  0  0  0  0
  -88.2910   30.0109   -3.5712 C   0  0  0  0  0  0  0  0  0  0  0  0
  1  2  1  0  0  0
  2  3  2  0  0  0
  2  4  1  0  0  0
  4  5  1  0  0  0
  5  6  2  0  0  0
  6  7  1  0  0  0
  7  8  2  0  0  0
  8 15  1  0  0  0
 15 16  2  0  0  0
 16 17  1  0  0  0
 17 18  2  0  0  0
 18 21  1  0  0  0
 21 22  1  0  0  0
 21 23  1  0  0  0
 21 24  1  0  0  0
 18 19  1  0  0  0
 19 20  2  0  0  0
  8  9  1  0  0  0
  9 10  2  0  0  0
 10 11  1  0  0  0
 11 25  1  0  0  0
 25 27  1  0  0  0
 27 28  2  0  0  0
 28 29  1  0  0  0
 29 30  2  0  0  0
 30 31  1  0  0  0
 31 32  2  0  0  0
 11 12  1  0  0  0
 12 13  1  0  0  0
 13 14  1  0  0  0
 13  4  1  0  0  0
 10  5  1  0  0  0
 32 27  1  0  0  0
 20 15  1  0  0  0
 25 26  1  0  0  0
M  END
> <minimizedAffinity>
-9.34047

> <CNNscore>
0.2834066451

> <CNNaffinity>
6.0666441917

> <CNN_VS>
1.7193273306

> <CNNaffinity_variance>
0.4022220075

$$$$
[H]c1c([H])c([H])c(N([H])[C@@]2([H])c3c([H])c(-c4c([H])c([H])c(C(F)(F)F)c([H])c4[H])c([H])c([H])c3N(C(=O)C([H])([H])[H])[C@@]([H])(C([H])([H])[H])C2([H])[H])c([H])c1[H]


 32 35  0  0  0  0  0  0  0  0999 V2000
  -82.3121   31.1565    0.4173 C   0  0  0  0  0  0  0  0  0  0  0  0
  -83.1556   30.2353    1.1898 C   0  0  0  0  0  0  0  0  0  0  0  0
  -82.5715   29.5053    2.0617 O   0  0  0  0  0  0  0  0  0  0  0  0
  -84.5487   30.1166    1.0114 N   0  0  0  0  0  0  0  0  0  0  0  0
  -85.3913   30.9860    0.2855 C   0  0  0  0  0  0  0  0  0  0  0  0
  -85.0677   32.3358    0.2058 C   0  0  0  0  0  0  0  0  0  0  0  0
  -85.8675   33.1406   -0.5699 C   0  0  0  0  0  0  0  0  0  0  0  0
  -86.9718   32.7015   -1.2749 C   0  0  0  0  0  0  0  0  0  0  0  0
  -87.2704   31.3644   -1.1698 C   0  0  0  0  0  0  0  0  0  0  0  0
  -86.4851   30.5063   -0.3928 C   0  0  0  0  0  0  0  0  0  0  0  0
  -86.9446   29.1143   -0.3060 C   0  0  0  0  0  0  0  0  0  0  0  0
  -86.0140   28.2341    0.4816 C   0  0  0  0  0  0  0  0  0  0  0  0
  -85.2444   28.9313    1.5524 C   0  0  0  0  0  0  0  0  0  0  0  0
  -85.9581   29.2666    2.8079 C   0  0  0  0  0  0  0  0  0  0  0  0
  -87.7762   33.5901   -2.1202 C   0  0  0  0  0  0  0  0  0  0  0  0
  -89.0910   33.2624   -2.4233 C   0  0  0  0  0  0  0  0  0  0  0  0
  -89.9151   34.0776   -3.1666 C   0  0  0  0  0  0  0  0  0  0  0  0
  -89.4047   35.2796   -3.6368 C   0  0  0  0  0  0  0  0  0  0  0  0
  -88.1033   35.6367   -3.3583 C   0  0  0  0  0  0  0  0  0  0  0  0
  -87.3011   34.7817   -2.5996 C   0  0  0  0  0  0  0  0  0  0  0  0
  -90.3277   36.1614   -4.4375 C   0  0  0  0  0  0  0  0  0  0  0  0
  -91.5269   36.3273   -3.7646 F   0  0  0  0  0  0  0  0  0  0  0  0
  -90.6001   35.6467   -5.6689 F   0  0  0  0  0  0  0  0  0  0  0  0
  -89.7423   37.4240   -4.4771 F   0  0  0  0  0  0  0  0  0  0  0  0
  -88.2695   29.1267    0.3473 N   0  0  0  0  0  0  0  0  0  0  0  0
  -88.2897   29.4169    1.3497 H   0  0  0  0  0  0  0  0  0  0  0  0
  -89.4410   28.7523   -0.3695 C   0  0  0  0  0  0  0  0  0  0  0  0
  -90.6168   29.4663   -0.2021 C   0  0  0  0  0  0  0  0  0  0  0  0
  -91.7087   29.1112   -0.9562 C   0  0  0  0  0  0  0  0  0  0  0  0
  -91.7091   28.0865   -1.8688 C   0  0  0  0  0  0  0  0  0  0  0  0
  -90.5386   27.3604   -2.0467 C   0  0  0  0  0  0  0  0  0  0  0  0
  -89.4353   27.7065   -1.2979 C   0  0  0  0  0  0  0  0  0  0  0  0
  1  2  1  0  0  0
  2  3  2  0  0  0
  2  4  1  0  0  0
  4  5  1  0  0  0
  5  6  2  0  0  0
  6  7  1  0  0  0
  7  8  2  0  0  0
  8 15  1  0  0  0
 15 16  2  0  0  0
 16 17  1  0  0  0
 17 18  2  0  0  0
 18 21  1  0  0  0
 21 22  1  0  0  0
 21 23  1  0  0  0
 21 24  1  0  0  0
 18 19  1  0  0  0
 19 20  2  0  0  0
  8  9  1  0  0  0
  9 10  2  0  0  0
 10 11  1  0  0  0
 11 25  1  0  0  0
 25 27  1  0  0  0
 27 28  2  0  0  0
 28 29  1  0  0  0
 29 30  2  0  0  0
 30 31  1  0  0  0
 31 32  2  0  0  0
 11 12  1  0  0  0
 12 13  1  0  0  0
 13 14  1  0  0  0
 13  4  1  0  0  0
 10  5  1  0  0  0
 32 27  1  0  0  0
 20 15  1  0  0  0
 25 26  1  0  0  0
M  END
> <minimizedAffinity>
-9.41359

> <CNNscore>
0.2382014394

> <CNNaffinity>
6.3228082657

> <CNN_VS>
1.5061020851

> <CNNaffinity_variance>
0.3311800659

$$$$
[H]c1c([H])c([H])c(N([H])[C@@]2([H])c3c([H])c(-c4c([H])c([H])c(C(F)(F)F)c([H])c4[H])c([H])c([H])c3N(C(=O)C([H])([H])[H])[C@@]([H])(C([H])([H])[H])C2([H])[H])c([H])c1[H]


 32 35  0  0  0  0  0  0  0  0999 V2000
  -83.3328   29.4184    1.7323 C   0  0  0  0  0  0  0  0  0  0  0  0
  -84.4536   28.5656    2.1484 C   0  0  0  0  0  0  0  0  0  0  0  0
  -84.2474   27.7729    3.1298 O   0  0  0  0  0  0  0  0  0  0  0  0
  -85.7166   28.5758    1.5228 N   0  0  0  0  0  0  0  0  0  0  0  0
  -86.2028   29.5285    0.6015 C   0  0  0  0  0  0  0  0  0  0  0  0
  -85.7636   30.8447    0.6901 C   0  0  0  0  0  0  0  0  0  0  0  0
  -86.1983   31.7299   -0.2671 C   0  0  0  0  0  0  0  0  0  0  0  0
  -87.0430   31.4030   -1.3107 C   0  0  0  0  0  0  0  0  0  0  0  0
  -87.4659   30.0968   -1.3667 C   0  0  0  0  0  0  0  0  0  0  0  0
  -87.0495   29.1598   -0.4152 C   0  0  0  0  0  0  0  0  0  0  0  0
  -87.6225   27.8137   -0.5430 C   0  0  0  0  0  0  0  0  0  0  0  0
  -87.0745   26.8414    0.4646 C   0  0  0  0  0  0  0  0  0  0  0  0
  -86.6439   27.4502    1.7565 C   0  0  0  0  0  0  0  0  0  0  0  0
  -87.6994   27.8295    2.7260 C   0  0  0  0  0  0  0  0  0  0  0  0
  -87.4526   32.3732   -2.3316 C   0  0  0  0  0  0  0  0  0  0  0  0
  -87.5790   33.7169   -2.0055 C   0  0  0  0  0  0  0  0  0  0  0  0
  -87.9082   34.6849   -2.9279 C   0  0  0  0  0  0  0  0  0  0  0  0
  -88.1273   34.2968   -4.2423 C   0  0  0  0  0  0  0  0  0  0  0  0
  -88.0137   32.9715   -4.6021 C   0  0  0  0  0  0  0  0  0  0  0  0
  -87.6765   32.0212   -3.6359 C   0  0  0  0  0  0  0  0  0  0  0  0
  -88.4743   35.3742   -5.2370 C   0  0  0  0  0  0  0  0  0  0  0  0
  -87.3892   35.6273   -6.0595 F   0  0  0  0  0  0  0  0  0  0  0  0
  -88.8316   36.5425   -4.6347 F   0  0  0  0  0  0  0  0  0  0  0  0
  -89.4606   34.8502   -6.0683 F   0  0  0  0  0  0  0  0  0  0  0  0
  -89.0826   27.9358   -0.3550 N   0  0  0  0  0  0  0  0  0  0  0  0
  -89.4038   28.2612    0.5833 H   0  0  0  0  0  0  0  0  0  0  0  0
  -89.9843   27.6146   -1.4087 C   0  0  0  0  0  0  0  0  0  0  0  0
  -90.7889   28.5991   -1.9598 C   0  0  0  0  0  0  0  0  0  0  0  0
  -91.6020   28.2623   -3.0146 C   0  0  0  0  0  0  0  0  0  0  0  0
  -91.6696   27.0044   -3.5588 C   0  0  0  0  0  0  0  0  0  0  0  0
  -90.8704   26.0066   -3.0161 C   0  0  0  0  0  0  0  0  0  0  0  0
  -90.0491   26.3306   -1.9587 C   0  0  0  0  0  0  0  0  0  0  0  0
  1  2  1  0  0  0
  2  3  2  0  0  0
  2  4  1  0  0  0
  4  5  1  0  0  0
  5  6  2  0  0  0
  6  7  1  0  0  0
  7  8  2  0  0  0
  8 15  1  0  0  0
 15 16  2  0  0  0
 16 17  1  0  0  0
 17 18  2  0  0  0
 18 21  1  0  0  0
 21 22  1  0  0  0
 21 23  1  0  0  0
 21 24  1  0  0  0
 18 19  1  0  0  0
 19 20  2  0  0  0
  8  9  1  0  0  0
  9 10  2  0  0  0
 10 11  1  0  0  0
 11 25  1  0  0  0
 25 27  1  0  0  0
 27 28  2  0  0  0
 28 29  1  0  0  0
 29 30  2  0  0  0
 30 31  1  0  0  0
 31 32  2  0  0  0
 11 12  1  0  0  0
 12 13  1  0  0  0
 13 14  1  0  0  0
 13  4  1  0  0  0
 10  5  1  0  0  0
 32 27  1  0  0  0
 20 15  1  0  0  0
 25 26  1  0  0  0
M  END
> <minimizedAffinity>
-9.29134

> <CNNscore>
0.2115596235

> <CNNaffinity>
6.3988828659

> <CNN_VS>
1.3537452221

> <CNNaffinity_variance>
0.2394438684

$$$$
[H]c1c([H])c([H])c(N([H])[C@@]2([H])c3c([H])c(-c4c([H])c([H])c(C(F)(F)F)c([H])c4[H])c([H])c([H])c3N(C(=O)C([H])([H])[H])[C@@]([H])(C([H])([H])[H])C2([H])[H])c([H])c1[H]


 32 35  0  0  0  0  0  0  0  0999 V2000
  -88.0913   36.9483   -2.9576 C   0  0  0  0  0  0  0  0  0  0  0  0
  -88.8337   36.1316   -3.9265 C   0  0  0  0  0  0  0  0  0  0  0  0
  -89.3959   36.7472   -4.8955 O   0  0  0  0  0  0  0  0  0  0  0  0
  -88.9582   34.7307   -3.8335 N   0  0  0  0  0  0  0  0  0  0  0  0
  -88.2266   33.8648   -2.9921 C   0  0  0  0  0  0  0  0  0  0  0  0
  -86.9226   34.1980   -2.6435 C   0  0  0  0  0  0  0  0  0  0  0  0
  -86.2647   33.3720   -1.7638 C   0  0  0  0  0  0  0  0  0  0  0  0
  -86.8089   32.2324   -1.2029 C   0  0  0  0  0  0  0  0  0  0  0  0
  -88.0961   31.9255   -1.5729 C   0  0  0  0  0  0  0  0  0  0  0  0
  -88.8058   32.7365   -2.4647 C   0  0  0  0  0  0  0  0  0  0  0  0
  -90.1474   32.2674   -2.8341 C   0  0  0  0  0  0  0  0  0  0  0  0
  -90.8795   33.2239   -3.7342 C   0  0  0  0  0  0  0  0  0  0  0  0
  -90.0063   34.0483   -4.6191 C   0  0  0  0  0  0  0  0  0  0  0  0
  -89.4261   33.3958   -5.8173 C   0  0  0  0  0  0  0  0  0  0  0  0
  -86.0818   31.3994   -0.2392 C   0  0  0  0  0  0  0  0  0  0  0  0
  -86.4353   30.0685   -0.0617 C   0  0  0  0  0  0  0  0  0  0  0  0
  -85.7605   29.2198    0.7871 C   0  0  0  0  0  0  0  0  0  0  0  0
  -84.6802   29.7210    1.5000 C   0  0  0  0  0  0  0  0  0  0  0  0
  -84.3022   31.0377    1.3516 C   0  0  0  0  0  0  0  0  0  0  0  0
  -85.0128   31.8649    0.4792 C   0  0  0  0  0  0  0  0  0  0  0  0
  -83.9491   28.7716    2.4136 C   0  0  0  0  0  0  0  0  0  0  0  0
  -84.4595   28.8619    3.6979 F   0  0  0  0  0  0  0  0  0  0  0  0
  -82.6126   29.0290    2.4693 F   0  0  0  0  0  0  0  0  0  0  0  0
  -84.2519   27.4838    1.9796 F   0  0  0  0  0  0  0  0  0  0  0  0
  -89.9869   30.9737   -3.5290 N   0  0  0  0  0  0  0  0  0  0  0  0
  -90.0431   30.9968   -4.5710 H   0  0  0  0  0  0  0  0  0  0  0  0
  -89.7750   29.7720   -2.7960 C   0  0  0  0  0  0  0  0  0  0  0  0
  -88.6185   29.0336   -2.9901 C   0  0  0  0  0  0  0  0  0  0  0  0
  -88.4235   27.9125   -2.2206 C   0  0  0  0  0  0  0  0  0  0  0  0
  -89.3080   27.4738   -1.2677 C   0  0  0  0  0  0  0  0  0  0  0  0
  -90.4726   28.2023   -1.0627 C   0  0  0  0  0  0  0  0  0  0  0  0
  -90.6805   29.3297   -1.8265 C   0  0  0  0  0  0  0  0  0  0  0  0
  1  2  1  0  0  0
  2  3  2  0  0  0
  2  4  1  0  0  0
  4  5  1  0  0  0
  5  6  2  0  0  0
  6  7  1  0  0  0
  7  8  2  0  0  0
  8 15  1  0  0  0
 15 16  2  0  0  0
 16 17  1  0  0  0
 17 18  2  0  0  0
 18 21  1  0  0  0
 21 22  1  0  0  0
 21 23  1  0  0  0
 21 24  1  0  0  0
 18 19  1  0  0  0
 19 20  2  0  0  0
  8  9  1  0  0  0
  9 10  2  0  0  0
 10 11  1  0  0  0
 11 25  1  0  0  0
 25 27  1  0  0  0
 27 28  2  0  0  0
 28 29  1  0  0  0
 29 30  2  0  0  0
 30 31  1  0  0  0
 31 32  2  0  0  0
 11 12  1  0  0  0
 12 13  1  0  0  0
 13 14  1  0  0  0
 13  4  1  0  0  0
 10  5  1  0  0  0
 32 27  1  0  0  0
 20 15  1  0  0  0
 25 26  1  0  0  0
M  END
> <minimizedAffinity>
-9.37335

> <CNNscore>
0.2068267763

> <CNNaffinity>
6.1096220016

> <CNN_VS>
1.2636333704

> <CNNaffinity_variance>
0.3082410693

$$$$
[H]c1nc(OC2([H])C([H])([H])[C@@]3([H])N(C(=O)OC(C([H])([H])[H])(C([H])([H])[H])C([H])([H])[H])[C@]([H])(C2([H])[H])C([H])([H])C3([H])[H])c([N+](=O)[O-])c(N([H])c2c([H])c([H])c(S(=O)(=O)C([H])([H])[H])c([H])c2[H])n1


 37 40  0  0  0  0  0  0  0  0999 V2000
  -88.3534   27.9028    0.3076 C   0  0  0  0  0  0  0  0  0  0  0  0
  -87.0609   28.1147    1.0385 N   0  0  0  0  0  0  0  0  0  0  0  0
  -85.9650   28.9204    0.4061 C   0  0  0  0  0  0  0  0  0  0  0  0
  -86.1617   29.5142   -0.9573 N   0  0  0  0  0  0  0  0  0  0  0  0
  -87.4543   29.3022   -1.6882 C   0  0  0  0  0  0  0  0  0  0  0  0
  -88.5501   28.4966   -1.0558 C   0  0  0  0  0  0  0  0  0  0  0  0
  -89.8427   28.2846   -1.7868 N   0  0  0  0  0  0  0  0  0  0  0  0
  -89.9402   27.2281   -2.8472 O   0  0  0  0  0  0  0  0  0  0  0  0
  -91.1965   28.9268   -1.7175 O   0  0  0  0  0  0  0  0  0  0  0  0
  -87.6510   29.8960   -3.0516 N   0  0  0  0  0  0  0  0  0  0  0  0
  -87.5127   29.0346   -4.2718 H   0  0  0  0  0  0  0  0  0  0  0  0
  -87.9859   31.3511   -3.1947 C   0  0  0  0  0  0  0  0  0  0  0  0
  -88.5377   32.1122   -2.0259 C   0  0  0  0  0  0  0  0  0  0  0  0
  -88.8726   33.5673   -2.1690 C   0  0  0  0  0  0  0  0  0  0  0  0
  -88.6558   34.2613   -3.4810 C   0  0  0  0  0  0  0  0  0  0  0  0
  -88.1040   33.5002   -4.6499 C   0  0  0  0  0  0  0  0  0  0  0  0
  -87.7691   32.0451   -4.5067 C   0  0  0  0  0  0  0  0  0  0  0  0
  -88.9907   35.7164   -3.6242 S   0  0  0  0  0  0  0  0  0  0  0  0
  -89.3255   37.1716   -3.7673 C   0  0  0  0  0  0  0  0  0  0  0  0
  -90.4110   35.3578   -3.9465 O   0  0  0  0  0  0  0  0  0  0  0  0
  -87.5702   36.0750   -3.3019 O   0  0  0  0  0  0  0  0  0  0  0  0
  -89.4494   27.0971    0.9399 O   0  0  0  0  0  0  0  0  0  0  0  0
  -89.7106   25.8607    0.4813 C   0  0  0  0  0  0  0  0  0  0  0  0
  -88.2421   25.5890    0.6217 O   0  0  0  0  0  0  0  0  0  0  0  0
  -90.8819   25.0447    0.0207 N   0  0  0  0  0  0  0  0  0  0  0  0
  -92.3068   25.5082   -0.0481 C   0  0  0  0  0  0  0  0  0  0  0  0
  -93.1395   24.3718   -0.5633 C   0  0  0  0  0  0  0  0  0  0  0  0
  -92.2292   23.2061   -0.8128 C   0  0  0  0  0  0  0  0  0  0  0  0
  -90.8339   23.6219   -0.4519 C   0  0  0  0  0  0  0  0  0  0  0  0
  -89.5588   24.3050   -0.0198 C   0  0  0  0  0  0  0  0  0  0  0  0
  -89.7615   25.7226    0.4266 C   0  0  0  0  0  0  0  0  0  0  0  0
  -91.1355   26.3242    0.4125 C   0  0  0  0  0  0  0  0  0  0  0  0
  -89.9132   27.2783    0.9277 O   0  0  0  0  0  0  0  0  0  0  0  0
  -91.2578   28.6344    1.8515 C   0  0  0  0  0  0  0  0  0  0  0  0
  -90.3231   27.5682    2.3412 C   0  0  0  0  0  0  0  0  0  0  0  0
  -89.3885   26.5021    2.8309 C   0  0  0  0  0  0  0  0  0  0  0  0
  -90.7330   27.8581    3.7547 C   0  0  0  0  0  0  0  0  0  0  0  0
 34 35  1  0  0  0
 35 36  1  0  0  0
 35 37  1  0  0  0
 35 33  1  0  0  0
 33 23  1  0  0  0
 23 24  2  0  0  0
 23 25  1  0  0  0
 25 26  1  0  0  0
 26 27  1  0  0  0
 27 28  1  0  0  0
 28 29  1  0  0  0
 29 30  1  0  0  0
 30 31  1  0  0  0
 31 22  1  0  0  0
 22  1  1  0  0  0
  1  2  2  0  0  0
  2  3  1  0  0  0
  3  4  2  0  0  0
  4  5  1  0  0  0
  5 10  1  0  0  0
 10 12  1  0  0  0
 12 13  2  0  0  0
 13 14  1  0  0  0
 14 15  2  0  0  0
 15 18  1  0  0  0
 18 19  1  0  0  0
 18 20  2  0  0  0
 18 21  2  0  0  0
 15 16  1  0  0  0
 16 17  2  0  0  0
  5  6  2  0  0  0
  6  7  1  0  0  0
  7  8  2  0  0  0
  7  9  1  0  0  0
 31 32  1  0  0  0
 29 25  1  0  0  0
  6  1  1  0  0  0
 32 26  1  0  0  0
 17 12  1  0  0  0
 10 11  1  0  0  0
M  CHG 1   7   1
M  CHG 1   9  -1
M  END
> <minimizedAffinity>
-8.09111

> <CNNscore>
0.0178563762

> <CNNaffinity>
5.4671974182

> <CNN_VS>
0.0976243317

> <CNNaffinity_variance>
0.3586930931

$$$$
[H]c1nc(OC2([H])C([H])([H])[C@@]3([H])N(C(=O)OC(C([H])([H])[H])(C([H])([H])[H])C([H])([H])[H])[C@]([H])(C2([H])[H])C([H])([H])C3([H])[H])c([N+](=O)[O-])c(N([H])c2c([H])c([H])c(S(=O)(=O)C([H])([H])[H])c([H])c2[H])n1


 37 40  0  0  0  0  0  0  0  0999 V2000
  -90.3488   30.6899   -2.8532 C   0  0  0  0  0  0  0  0  0  0  0  0
  -91.8239   30.6325   -2.5871 N   0  0  0  0  0  0  0  0  0  0  0  0
  -92.7590   31.5223   -3.3510 C   0  0  0  0  0  0  0  0  0  0  0  0
  -92.2190   32.4697   -4.3811 N   0  0  0  0  0  0  0  0  0  0  0  0
  -90.7439   32.5271   -4.6472 C   0  0  0  0  0  0  0  0  0  0  0  0
  -89.8088   31.6373   -3.8832 C   0  0  0  0  0  0  0  0  0  0  0  0
  -88.3337   31.6948   -4.1493 N   0  0  0  0  0  0  0  0  0  0  0  0
  -87.7022   30.7105   -5.0887 O   0  0  0  0  0  0  0  0  0  0  0  0
  -87.2209   32.5760   -3.6644 O   0  0  0  0  0  0  0  0  0  0  0  0
  -90.2040   33.4745   -5.6773 N   0  0  0  0  0  0  0  0  0  0  0  0
  -90.4080   33.1920   -7.1362 H   0  0  0  0  0  0  0  0  0  0  0  0
  -89.4601   34.7044   -5.2483 C   0  0  0  0  0  0  0  0  0  0  0  0
  -88.3900   35.2789   -6.1285 C   0  0  0  0  0  0  0  0  0  0  0  0
  -87.6461   36.5088   -5.6994 C   0  0  0  0  0  0  0  0  0  0  0  0
  -87.9723   37.1641   -4.3901 C   0  0  0  0  0  0  0  0  0  0  0  0
  -89.0424   36.5895   -3.5099 C   0  0  0  0  0  0  0  0  0  0  0  0
  -89.7863   35.3597   -3.9390 C   0  0  0  0  0  0  0  0  0  0  0  0
  -87.2285   38.3939   -3.9611 S   0  0  0  0  0  0  0  0  0  0  0  0
  -86.4845   39.6238   -3.5321 C   0  0  0  0  0  0  0  0  0  0  0  0
  -88.0947   38.4921   -2.7405 O   0  0  0  0  0  0  0  0  0  0  0  0
  -86.3621   38.2958   -5.1817 O   0  0  0  0  0  0  0  0  0  0  0  0
  -89.4136   29.8001   -2.0893 O   0  0  0  0  0  0  0  0  0  0  0  0
  -89.7831   28.5425   -1.7910 C   0  0  0  0  0  0  0  0  0  0  0  0
  -89.5570   28.2217   -3.2388 O   0  0  0  0  0  0  0  0  0  0  0  0
  -90.2283   27.7414   -0.6035 N   0  0  0  0  0  0  0  0  0  0  0  0
  -90.3965   28.2571    0.7950 C   0  0  0  0  0  0  0  0  0  0  0  0
  -90.8556   27.1185    1.6568 C   0  0  0  0  0  0  0  0  0  0  0  0
  -90.9711   25.8991    0.7910 C   0  0  0  0  0  0  0  0  0  0  0  0
  -90.5834   26.2841   -0.6059 C   0  0  0  0  0  0  0  0  0  0  0  0
  -90.1514   26.9460   -1.8922 C   0  0  0  0  0  0  0  0  0  0  0  0
  -89.8288   28.4026   -1.7361 C   0  0  0  0  0  0  0  0  0  0  0  0
  -89.9514   29.0581   -0.3925 C   0  0  0  0  0  0  0  0  0  0  0  0
  -89.4605   29.9990   -1.6349 O   0  0  0  0  0  0  0  0  0  0  0  0
  -88.7783   31.5227   -0.3262 C   0  0  0  0  0  0  0  0  0  0  0  0
  -88.1230   30.4179   -1.1007 C   0  0  0  0  0  0  0  0  0  0  0  0
  -87.4676   29.3131   -1.8752 C   0  0  0  0  0  0  0  0  0  0  0  0
  -86.7854   30.8368   -0.5665 C   0  0  0  0  0  0  0  0  0  0  0  0
 34 35  1  0  0  0
 35 36  1  0  0  0
 35 37  1  0  0  0
 35 33  1  0  0  0
 33 23  1  0  0  0
 23 24  2  0  0  0
 23 25  1  0  0  0
 25 26  1  0  0  0
 26 27  1  0  0  0
 27 28  1  0  0  0
 28 29  1  0  0  0
 29 30  1  0  0  0
 30 31  1  0  0  0
 31 22  1  0  0  0
 22  1  1  0  0  0
  1  2  2  0  0  0
  2  3  1  0  0  0
  3  4  2  0  0  0
  4  5  1  0  0  0
  5 10  1  0  0  0
 10 12  1  0  0  0
 12 13  2  0  0  0
 13 14  1  0  0  0
 14 15  2  0  0  0
 15 18  1  0  0  0
 18 19  1  0  0  0
 18 20  2  0  0  0
 18 21  2  0  0  0
 15 16  1  0  0  0
 16 17  2  0  0  0
  5  6  2  0  0  0
  6  7  1  0  0  0
  7  8  2  0  0  0
  7  9  1  0  0  0
 31 32  1  0  0  0
 29 25  1  0  0  0
  6  1  1  0  0  0
 32 26  1  0  0  0
 17 12  1  0  0  0
 10 11  1  0  0  0
M  CHG 1   7   1
M  CHG 1   9  -1
M  END
> <minimizedAffinity>
-7.87240

> <CNNscore>
0.0171885304

> <CNNaffinity>
5.3739061356

> <CNN_VS>
0.0923695490

> <CNNaffinity_variance>
0.4507361054

$$$$
[H]c1nc(OC2([H])C([H])([H])[C@@]3([H])N(C(=O)OC(C([H])([H])[H])(C([H])([H])[H])C([H])([H])[H])[C@]([H])(C2([H])[H])C([H])([H])C3([H])[H])c([N+](=O)[O-])c(N([H])c2c([H])c([H])c(S(=O)(=O)C([H])([H])[H])c([H])c2[H])n1


 37 40  0  0  0  0  0  0  0  0999 V2000
  -90.9753   27.1709   -0.3722 C   0  0  0  0  0  0  0  0  0  0  0  0
  -91.3521   27.1400    1.0793 N   0  0  0  0  0  0  0  0  0  0  0  0
  -91.1865   28.3687    1.9235 C   0  0  0  0  0  0  0  0  0  0  0  0
  -90.6441   29.6285    1.3161 N   0  0  0  0  0  0  0  0  0  0  0  0
  -90.2672   29.6594   -0.1354 C   0  0  0  0  0  0  0  0  0  0  0  0
  -90.4328   28.4306   -0.9796 C   0  0  0  0  0  0  0  0  0  0  0  0
  -90.0560   28.4615   -2.4312 N   0  0  0  0  0  0  0  0  0  0  0  0
  -91.0717   28.8578   -3.4614 O   0  0  0  0  0  0  0  0  0  0  0  0
  -88.7941   28.1667   -3.1867 O   0  0  0  0  0  0  0  0  0  0  0  0
  -89.7247   30.9191   -0.7428 N   0  0  0  0  0  0  0  0  0  0  0  0
  -90.6309   31.8279   -1.5193 H   0  0  0  0  0  0  0  0  0  0  0  0
  -88.2762   31.2699   -0.5736 C   0  0  0  0  0  0  0  0  0  0  0  0
  -87.7985   32.6564   -0.8886 C   0  0  0  0  0  0  0  0  0  0  0  0
  -86.3499   33.0071   -0.7194 C   0  0  0  0  0  0  0  0  0  0  0  0
  -85.3791   31.9713   -0.2351 C   0  0  0  0  0  0  0  0  0  0  0  0
  -85.8568   30.5848    0.0799 C   0  0  0  0  0  0  0  0  0  0  0  0
  -87.3053   30.2341   -0.0893 C   0  0  0  0  0  0  0  0  0  0  0  0
  -83.9305   32.3220   -0.0659 S   0  0  0  0  0  0  0  0  0  0  0  0
  -82.4819   32.6727    0.1034 C   0  0  0  0  0  0  0  0  0  0  0  0
  -84.0847   33.4373   -1.0570 O   0  0  0  0  0  0  0  0  0  0  0  0
  -83.7763   31.2067    0.9253 O   0  0  0  0  0  0  0  0  0  0  0  0
  -91.1409   25.9421   -1.2165 O   0  0  0  0  0  0  0  0  0  0  0  0
  -90.5818   24.7838   -0.8253 C   0  0  0  0  0  0  0  0  0  0  0  0
  -89.2601   25.3993   -1.1779 O   0  0  0  0  0  0  0  0  0  0  0  0
  -90.9977   23.4498   -0.2799 N   0  0  0  0  0  0  0  0  0  0  0  0
  -92.4037   23.0157    0.0111 C   0  0  0  0  0  0  0  0  0  0  0  0
  -92.3555   21.6132    0.5410 C   0  0  0  0  0  0  0  0  0  0  0  0
  -90.9198   21.1805    0.5775 C   0  0  0  0  0  0  0  0  0  0  0  0
  -90.0806   22.3156    0.0701 C   0  0  0  0  0  0  0  0  0  0  0  0
  -89.5010   23.6003   -0.4711 C   0  0  0  0  0  0  0  0  0  0  0  0
  -90.5365   24.6421   -0.7753 C   0  0  0  0  0  0  0  0  0  0  0  0
  -91.9878   24.3497   -0.5342 C   0  0  0  0  0  0  0  0  0  0  0  0
  -91.6173   25.8256   -1.1295 O   0  0  0  0  0  0  0  0  0  0  0  0
  -93.6689   25.9812   -1.6460 C   0  0  0  0  0  0  0  0  0  0  0  0
  -92.3971   25.7567   -2.4090 C   0  0  0  0  0  0  0  0  0  0  0  0
  -91.1253   25.5323   -3.1720 C   0  0  0  0  0  0  0  0  0  0  0  0
  -93.1768   25.6879   -3.6885 C   0  0  0  0  0  0  0  0  0  0  0  0
 34 35  1  0  0  0
 35 36  1  0  0  0
 35 37  1  0  0  0
 35 33  1  0  0  0
 33 23  1  0  0  0
 23 24  2  0  0  0
 23 25  1  0  0  0
 25 26  1  0  0  0
 26 27  1  0  0  0
 27 28  1  0  0  0
 28 29  1  0  0  0
 29 30  1  0  0  0
 30 31  1  0  0  0
 31 22  1  0  0  0
 22  1  1  0  0  0
  1  2  2  0  0  0
  2  3  1  0  0  0
  3  4  2  0  0  0
  4  5  1  0  0  0
  5 10  1  0  0  0
 10 12  1  0  0  0
 12 13  2  0  0  0
 13 14  1  0  0  0
 14 15  2  0  0  0
 15 18  1  0  0  0
 18 19  1  0  0  0
 18 20  2  0  0  0
 18 21  2  0  0  0
 15 16  1  0  0  0
 16 17  2  0  0  0
  5  6  2  0  0  0
  6  7  1  0  0  0
  7  8  2  0  0  0
  7  9  1  0  0  0
 31 32  1  0  0  0
 29 25  1  0  0  0
  6  1  1  0  0  0
 32 26  1  0  0  0
 17 12  1  0  0  0
 10 11  1  0  0  0
M  CHG 1   7   1
M  CHG 1   9  -1
M  END
> <minimizedAffinity>
-8.05002

> <CNNscore>
0.0150779579

> <CNNaffinity>
5.4365572929

> <CNN_VS>
0.0819721818

> <CNNaffinity_variance>
0.4020206928

$$$$
[H]c1nc(OC2([H])C([H])([H])[C@@]3([H])N(C(=O)OC(C([H])([H])[H])(C([H])([H])[H])C([H])([H])[H])[C@]([H])(C2([H])[H])C([H])([H])C3([H])[H])c([N+](=O)[O-])c(N([H])c2c([H])c([H])c(S(=O)(=O)C([H])([H])[H])c([H])c2[H])n1


 37 40  0  0  0  0  0  0  0  0999 V2000
  -88.7118   28.0467   -0.0405 C   0  0  0  0  0  0  0  0  0  0  0  0
  -87.3984   28.1500    0.6767 N   0  0  0  0  0  0  0  0  0  0  0  0
  -86.2511   28.8763    0.0395 C   0  0  0  0  0  0  0  0  0  0  0  0
  -86.4171   29.4994   -1.3148 N   0  0  0  0  0  0  0  0  0  0  0  0
  -87.7304   29.3961   -2.0320 C   0  0  0  0  0  0  0  0  0  0  0  0
  -88.8778   28.6698   -1.3949 C   0  0  0  0  0  0  0  0  0  0  0  0
  -90.1912   28.5665   -2.1120 N   0  0  0  0  0  0  0  0  0  0  0  0
  -90.3819   27.5331   -3.1825 O   0  0  0  0  0  0  0  0  0  0  0  0
  -91.4906   29.3101   -2.0191 O   0  0  0  0  0  0  0  0  0  0  0  0
  -87.8965   30.0192   -3.3864 N   0  0  0  0  0  0  0  0  0  0  0  0
  -87.6546   29.2037   -4.6218 H   0  0  0  0  0  0  0  0  0  0  0  0
  -88.3043   31.4578   -3.5051 C   0  0  0  0  0  0  0  0  0  0  0  0
  -88.4901   32.0755   -4.8594 C   0  0  0  0  0  0  0  0  0  0  0  0
  -88.8979   33.5140   -4.9780 C   0  0  0  0  0  0  0  0  0  0  0  0
  -89.1199   34.3351   -3.7424 C   0  0  0  0  0  0  0  0  0  0  0  0
  -88.9340   33.7174   -2.3881 C   0  0  0  0  0  0  0  0  0  0  0  0
  -88.5262   32.2789   -2.2695 C   0  0  0  0  0  0  0  0  0  0  0  0
  -89.5277   35.7736   -3.8610 S   0  0  0  0  0  0  0  0  0  0  0  0
  -89.9356   37.2123   -3.9797 C   0  0  0  0  0  0  0  0  0  0  0  0
  -88.2523   36.1906   -3.1905 O   0  0  0  0  0  0  0  0  0  0  0  0
  -90.8031   35.3568   -4.5316 O   0  0  0  0  0  0  0  0  0  0  0  0
  -89.8592   27.3203    0.5965 O   0  0  0  0  0  0  0  0  0  0  0  0
  -90.1725   27.5607    1.8816 C   0  0  0  0  0  0  0  0  0  0  0  0
  -90.8566   28.8038    1.3951 O   0  0  0  0  0  0  0  0  0  0  0  0
  -89.9765   26.9401    3.2330 N   0  0  0  0  0  0  0  0  0  0  0  0
  -89.2450   25.6621    3.5187 C   0  0  0  0  0  0  0  0  0  0  0  0
  -89.2940   25.4207    4.9984 C   0  0  0  0  0  0  0  0  0  0  0  0
  -90.0558   26.5495    5.6272 C   0  0  0  0  0  0  0  0  0  0  0  0
  -90.4776   27.4885    4.5361 C   0  0  0  0  0  0  0  0  0  0  0  0
  -90.7605   28.2379    3.2564 C   0  0  0  0  0  0  0  0  0  0  0  0
  -90.1987   27.5705    2.0361 C   0  0  0  0  0  0  0  0  0  0  0  0
  -89.4410   26.2827    2.1672 C   0  0  0  0  0  0  0  0  0  0  0  0
  -89.6108   26.8934    0.6613 O   0  0  0  0  0  0  0  0  0  0  0  0
  -91.6233   26.5741    0.0716 C   0  0  0  0  0  0  0  0  0  0  0  0
  -90.3594   25.7686    0.0098 C   0  0  0  0  0  0  0  0  0  0  0  0
  -89.0955   24.9632   -0.0520 C   0  0  0  0  0  0  0  0  0  0  0  0
  -91.1080   24.6439   -0.6417 C   0  0  0  0  0  0  0  0  0  0  0  0
 34 35  1  0  0  0
 35 36  1  0  0  0
 35 37  1  0  0  0
 35 33  1  0  0  0
 33 23  1  0  0  0
 23 24  2  0  0  0
 23 25  1  0  0  0
 25 26  1  0  0  0
 26 27  1  0  0  0
 27 28  1  0  0  0
 28 29  1  0  0  0
 29 30  1  0  0  0
 30 31  1  0  0  0
 31 22  1  0  0  0
 22  1  1  0  0  0
  1  2  2  0  0  0
  2  3  1  0  0  0
  3  4  2  0  0  0
  4  5  1  0  0  0
  5 10  1  0  0  0
 10 12  1  0  0  0
 12 13  2  0  0  0
 13 14  1  0  0  0
 14 15  2  0  0  0
 15 18  1  0  0  0
 18 19  1  0  0  0
 18 20  2  0  0  0
 18 21  2  0  0  0
 15 16  1  0  0  0
 16 17  2  0  0  0
  5  6  2  0  0  0
  6  7  1  0  0  0
  7  8  2  0  0  0
  7  9  1  0  0  0
 31 32  1  0  0  0
 29 25  1  0  0  0
  6  1  1  0  0  0
 32 26  1  0  0  0
 17 12  1  0  0  0
 10 11  1  0  0  0
M  CHG 1   7   1
M  CHG 1   9  -1
M  END
> <minimizedAffinity>
-8.44186

> <CNNscore>
0.0104186945

> <CNNaffinity>
5.3472623825

> <CNN_VS>
0.0557114929

> <CNNaffinity_variance>
0.4010602534

$$$$
[H]c1nc(OC2([H])C([H])([H])[C@@]3([H])N(C(=O)OC(C([H])([H])[H])(C([H])([H])[H])C([H])([H])[H])[C@]([H])(C2([H])[H])C([H])([H])C3([H])[H])c([N+](=O)[O-])c(N([H])c2c([H])c([H])c(S(=O)(=O)C([H])([H])[H])c([H])c2[H])n1


 37 40  0  0  0  0  0  0  0  0999 V2000
  -88.7023   28.0528   -0.0353 C   0  0  0  0  0  0  0  0  0  0  0  0
  -87.3960   28.1732    0.6921 N   0  0  0  0  0  0  0  0  0  0  0  0
  -86.2478   28.8994    0.0565 C   0  0  0  0  0  0  0  0  0  0  0  0
  -86.4058   29.5053   -1.3066 N   0  0  0  0  0  0  0  0  0  0  0  0
  -87.7121   29.3850   -2.0340 C   0  0  0  0  0  0  0  0  0  0  0  0
  -88.8603   28.6587   -1.3984 C   0  0  0  0  0  0  0  0  0  0  0  0
  -90.1666   28.5383   -2.1258 N   0  0  0  0  0  0  0  0  0  0  0  0
  -90.3437   27.4863   -3.1802 O   0  0  0  0  0  0  0  0  0  0  0  0
  -91.4695   29.2785   -2.0574 O   0  0  0  0  0  0  0  0  0  0  0  0
  -87.8701   29.9909   -3.3971 N   0  0  0  0  0  0  0  0  0  0  0  0
  -87.5497   29.1821   -4.6190 H   0  0  0  0  0  0  0  0  0  0  0  0
  -88.3485   31.4055   -3.5381 C   0  0  0  0  0  0  0  0  0  0  0  0
  -88.6831   31.9525   -4.8941 C   0  0  0  0  0  0  0  0  0  0  0  0
  -89.1615   33.3672   -5.0350 C   0  0  0  0  0  0  0  0  0  0  0  0
  -89.3053   34.2348   -3.8199 C   0  0  0  0  0  0  0  0  0  0  0  0
  -88.9707   33.6878   -2.4638 C   0  0  0  0  0  0  0  0  0  0  0  0
  -88.4924   32.2732   -2.3229 C   0  0  0  0  0  0  0  0  0  0  0  0
  -89.7837   35.6495   -3.9608 S   0  0  0  0  0  0  0  0  0  0  0  0
  -90.2621   37.0642   -4.1016 C   0  0  0  0  0  0  0  0  0  0  0  0
  -90.9873   35.1674   -4.7151 O   0  0  0  0  0  0  0  0  0  0  0  0
  -88.5801   36.1316   -3.2064 O   0  0  0  0  0  0  0  0  0  0  0  0
  -89.8506   27.3266    0.6003 O   0  0  0  0  0  0  0  0  0  0  0  0
  -90.1665   27.5680    1.8845 C   0  0  0  0  0  0  0  0  0  0  0  0
  -90.8471   28.8122    1.3960 O   0  0  0  0  0  0  0  0  0  0  0  0
  -89.9747   26.9476    3.2367 N   0  0  0  0  0  0  0  0  0  0  0  0
  -89.2463   25.6683    3.5245 C   0  0  0  0  0  0  0  0  0  0  0  0
  -89.2992   25.4275    5.0041 C   0  0  0  0  0  0  0  0  0  0  0  0
  -90.0603   26.5580    5.6308 C   0  0  0  0  0  0  0  0  0  0  0  0
  -90.4778   27.4974    4.5384 C   0  0  0  0  0  0  0  0  0  0  0  0
  -90.7563   28.2468    3.2578 C   0  0  0  0  0  0  0  0  0  0  0  0
  -90.1930   27.5780    2.0390 C   0  0  0  0  0  0  0  0  0  0  0  0
  -89.4380   26.2887    2.1723 C   0  0  0  0  0  0  0  0  0  0  0  0
  -89.6032   26.8992    0.6658 O   0  0  0  0  0  0  0  0  0  0  0  0
  -89.0858   24.9706   -0.0504 C   0  0  0  0  0  0  0  0  0  0  0  0
  -90.3511   25.7737    0.0147 C   0  0  0  0  0  0  0  0  0  0  0  0
  -91.6163   26.5767    0.0798 C   0  0  0  0  0  0  0  0  0  0  0  0
  -91.0989   24.6481   -0.6363 C   0  0  0  0  0  0  0  0  0  0  0  0
 34 35  1  0  0  0
 35 36  1  0  0  0
 35 37  1  0  0  0
 35 33  1  0  0  0
 33 23  1  0  0  0
 23 24  2  0  0  0
 23 25  1  0  0  0
 25 26  1  0  0  0
 26 27  1  0  0  0
 27 28  1  0  0  0
 28 29  1  0  0  0
 29 30  1  0  0  0
 30 31  1  0  0  0
 31 22  1  0  0  0
 22  1  1  0  0  0
  1  2  2  0  0  0
  2  3  1  0  0  0
  3  4  2  0  0  0
  4  5  1  0  0  0
  5 10  1  0  0  0
 10 12  1  0  0  0
 12 13  2  0  0  0
 13 14  1  0  0  0
 14 15  2  0  0  0
 15 18  1  0  0  0
 18 19  1  0  0  0
 18 20  2  0  0  0
 18 21  2  0  0  0
 15 16  1  0  0  0
 16 17  2  0  0  0
  5  6  2  0  0  0
  6  7  1  0  0  0
  7  8  2  0  0  0
  7  9  1  0  0  0
 31 32  1  0  0  0
 29 25  1  0  0  0
  6  1  1  0  0  0
 32 26  1  0  0  0
 17 12  1  0  0  0
 10 11  1  0  0  0
M  CHG 1   7   1
M  CHG 1   9  -1
M  END
> <minimizedAffinity>
-8.42906

> <CNNscore>
0.0102317482

> <CNNaffinity>
5.3195905685

> <CNN_VS>
0.0544287115

> <CNNaffinity_variance>
0.4358449876

$$$$
[H]c1nc(OC2([H])C([H])([H])[C@@]3([H])N(C(=O)OC(C([H])([H])[H])(C([H])([H])[H])C([H])([H])[H])[C@]([H])(C2([H])[H])C([H])([H])C3([H])[H])c([N+](=O)[O-])c(N([H])c2c([H])c([H])c(S(=O)(=O)C([H])([H])[H])c([H])c2[H])n1


 37 40  0  0  0  0  0  0  0  0999 V2000
  -88.7152   28.8544    0.4442 C   0  0  0  0  0  0  0  0  0  0  0  0
  -89.9909   29.6427    0.4104 N   0  0  0  0  0  0  0  0  0  0  0  0
  -91.1358   29.2552    1.2986 C   0  0  0  0  0  0  0  0  0  0  0  0
  -91.0051   28.0792    2.2207 N   0  0  0  0  0  0  0  0  0  0  0  0
  -89.7294   27.2909    2.2545 C   0  0  0  0  0  0  0  0  0  0  0  0
  -88.5845   27.6784    1.3663 C   0  0  0  0  0  0  0  0  0  0  0  0
  -87.3088   26.8901    1.4001 N   0  0  0  0  0  0  0  0  0  0  0  0
  -87.0800   25.7907    0.4056 O   0  0  0  0  0  0  0  0  0  0  0  0
  -86.0829   26.9281    2.2636 O   0  0  0  0  0  0  0  0  0  0  0  0
  -89.5987   26.1150    3.1765 N   0  0  0  0  0  0  0  0  0  0  0  0
  -89.0832   26.3096    4.5717 H   0  0  0  0  0  0  0  0  0  0  0  0
  -89.9834   24.7445    2.7034 C   0  0  0  0  0  0  0  0  0  0  0  0
  -90.2613   24.5037    1.2491 C   0  0  0  0  0  0  0  0  0  0  0  0
  -90.6460   23.1332    0.7761 C   0  0  0  0  0  0  0  0  0  0  0  0
  -90.7529   22.0036    1.7572 C   0  0  0  0  0  0  0  0  0  0  0  0
  -90.4750   22.2445    3.2114 C   0  0  0  0  0  0  0  0  0  0  0  0
  -90.0903   23.6149    3.6845 C   0  0  0  0  0  0  0  0  0  0  0  0
  -91.1376   20.6332    1.2841 S   0  0  0  0  0  0  0  0  0  0  0  0
  -91.5223   19.2626    0.8111 C   0  0  0  0  0  0  0  0  0  0  0  0
  -90.7129   20.9946   -0.1083 O   0  0  0  0  0  0  0  0  0  0  0  0
  -91.5623   20.2717    2.6766 O   0  0  0  0  0  0  0  0  0  0  0  0
  -87.5703   29.2419   -0.4440 O   0  0  0  0  0  0  0  0  0  0  0  0
  -87.8001   29.5421   -1.7340 C   0  0  0  0  0  0  0  0  0  0  0  0
  -88.1413   28.0938   -1.9235 O   0  0  0  0  0  0  0  0  0  0  0  0
  -87.7614   30.7317   -2.6470 N   0  0  0  0  0  0  0  0  0  0  0  0
  -87.3851   32.1304   -2.2572 C   0  0  0  0  0  0  0  0  0  0  0  0
  -87.4834   32.9946   -3.4793 C   0  0  0  0  0  0  0  0  0  0  0  0
  -87.9205   32.1299   -4.6245 C   0  0  0  0  0  0  0  0  0  0  0  0
  -88.0923   30.7314   -4.1100 C   0  0  0  0  0  0  0  0  0  0  0  0
  -88.1808   29.4432   -3.3277 C   0  0  0  0  0  0  0  0  0  0  0  0
  -87.8216   29.5973   -1.8794 C   0  0  0  0  0  0  0  0  0  0  0  0
  -87.4238   30.9409   -1.3442 C   0  0  0  0  0  0  0  0  0  0  0  0
  -87.4409   29.6962   -0.2858 O   0  0  0  0  0  0  0  0  0  0  0  0
  -86.2984   30.9304    1.0070 C   0  0  0  0  0  0  0  0  0  0  0  0
  -86.0001   29.7523    0.1277 C   0  0  0  0  0  0  0  0  0  0  0  0
  -85.7019   28.5742   -0.7516 C   0  0  0  0  0  0  0  0  0  0  0  0
  -84.5594   29.8084    0.5413 C   0  0  0  0  0  0  0  0  0  0  0  0
 34 35  1  0  0  0
 35 36  1  0  0  0
 35 37  1  0  0  0
 35 33  1  0  0  0
 33 23  1  0  0  0
 23 24  2  0  0  0
 23 25  1  0  0  0
 25 26  1  0  0  0
 26 27  1  0  0  0
 27 28  1  0  0  0
 28 29  1  0  0  0
 29 30  1  0  0  0
 30 31  1  0  0  0
 31 22  1  0  0  0
 22  1  1  0  0  0
  1  2  2  0  0  0
  2  3  1  0  0  0
  3  4  2  0  0  0
  4  5  1  0  0  0
  5 10  1  0  0  0
 10 12  1  0  0  0
 12 13  2  0  0  0
 13 14  1  0  0  0
 14 15  2  0  0  0
 15 18  1  0  0  0
 18 19  1  0  0  0
 18 20  2  0  0  0
 18 21  2  0  0  0
 15 16  1  0  0  0
 16 17  2  0  0  0
  5  6  2  0  0  0
  6  7  1  0  0  0
  7  8  2  0  0  0
  7  9  1  0  0  0
 31 32  1  0  0  0
 29 25  1  0  0  0
  6  1  1  0  0  0
 32 26  1  0  0  0
 17 12  1  0  0  0
 10 11  1  0  0  0
M  CHG 1   7   1
M  CHG 1   9  -1
M  END
> <minimizedAffinity>
-8.60593

> <CNNscore>
0.0065458408

> <CNNaffinity>
5.4564232826

> <CNN_VS>
0.0357168764

> <CNNaffinity_variance>
0.3624485731

$$$$
[H]c1nc(OC2([H])C([H])([H])[C@@]3([H])N(C(=O)OC(C([H])([H])[H])(C([H])([H])[H])C([H])([H])[H])[C@]([H])(C2([H])[H])C([H])([H])C3([H])[H])c([N+](=O)[O-])c(N([H])c2c([H])c([H])c(S(=O)(=O)C([H])([H])[H])c([H])c2[H])n1


 37 40  0  0  0  0  0  0  0  0999 V2000
  -89.4202   28.6711   -0.1288 C   0  0  0  0  0  0  0  0  0  0  0  0
  -89.7860   29.3914    1.1351 N   0  0  0  0  0  0  0  0  0  0  0  0
  -90.8297   28.8203    2.0486 C   0  0  0  0  0  0  0  0  0  0  0  0
  -91.5076   27.5289    1.6982 N   0  0  0  0  0  0  0  0  0  0  0  0
  -91.1418   26.8086    0.4344 C   0  0  0  0  0  0  0  0  0  0  0  0
  -90.0981   27.3797   -0.4791 C   0  0  0  0  0  0  0  0  0  0  0  0
  -89.7323   26.6594   -1.7430 N   0  0  0  0  0  0  0  0  0  0  0  0
  -88.8688   25.4343   -1.6850 O   0  0  0  0  0  0  0  0  0  0  0  0
  -90.0435   26.8774   -3.1941 O   0  0  0  0  0  0  0  0  0  0  0  0
  -91.8198   25.5172    0.0840 N   0  0  0  0  0  0  0  0  0  0  0  0
  -92.9291   25.5023   -0.9255 H   0  0  0  0  0  0  0  0  0  0  0  0
  -91.3883   24.2408    0.7432 C   0  0  0  0  0  0  0  0  0  0  0  0
  -91.1803   23.0044   -0.0802 C   0  0  0  0  0  0  0  0  0  0  0  0
  -90.7488   21.7281    0.5790 C   0  0  0  0  0  0  0  0  0  0  0  0
  -90.5253   21.6880    2.0618 C   0  0  0  0  0  0  0  0  0  0  0  0
  -90.7333   22.9244    2.8852 C   0  0  0  0  0  0  0  0  0  0  0  0
  -91.1648   24.2008    2.2260 C   0  0  0  0  0  0  0  0  0  0  0  0
  -90.0938   20.4117    2.7211 S   0  0  0  0  0  0  0  0  0  0  0  0
  -89.6622   19.1353    3.3804 C   0  0  0  0  0  0  0  0  0  0  0  0
  -90.7676   19.6238    1.6370 O   0  0  0  0  0  0  0  0  0  0  0  0
  -89.4199   21.1995    3.8052 O   0  0  0  0  0  0  0  0  0  0  0  0
  -88.3765   29.2422   -1.0424 O   0  0  0  0  0  0  0  0  0  0  0  0
  -87.1260   29.4336   -0.5876 C   0  0  0  0  0  0  0  0  0  0  0  0
  -87.0096   27.9395   -0.5249 O   0  0  0  0  0  0  0  0  0  0  0  0
  -86.1970   30.5657   -0.2630 N   0  0  0  0  0  0  0  0  0  0  0  0
  -86.5077   32.0271   -0.3963 C   0  0  0  0  0  0  0  0  0  0  0  0
  -85.2969   32.7998    0.0361 C   0  0  0  0  0  0  0  0  0  0  0  0
  -84.2379   31.8159    0.4367 C   0  0  0  0  0  0  0  0  0  0  0  0
  -84.7942   30.4352    0.2519 C   0  0  0  0  0  0  0  0  0  0  0  0
  -85.6024   29.1909   -0.0270 C   0  0  0  0  0  0  0  0  0  0  0  0
  -86.9841   29.4770   -0.5362 C   0  0  0  0  0  0  0  0  0  0  0  0
  -87.4367   30.8950   -0.7209 C   0  0  0  0  0  0  0  0  0  0  0  0
  -88.5076   29.7197   -1.0968 O   0  0  0  0  0  0  0  0  0  0  0  0
  -89.6301   31.2494   -2.0455 C   0  0  0  0  0  0  0  0  0  0  0  0
  -88.7070   30.1644   -2.5154 C   0  0  0  0  0  0  0  0  0  0  0  0
  -87.7839   29.0795   -2.9853 C   0  0  0  0  0  0  0  0  0  0  0  0
  -88.9063   30.6092   -3.9340 C   0  0  0  0  0  0  0  0  0  0  0  0
 34 35  1  0  0  0
 35 36  1  0  0  0
 35 37  1  0  0  0
 35 33  1  0  0  0
 33 23  1  0  0  0
 23 24  2  0  0  0
 23 25  1  0  0  0
 25 26  1  0  0  0
 26 27  1  0  0  0
 27 28  1  0  0  0
 28 29  1  0  0  0
 29 30  1  0  0  0
 30 31  1  0  0  0
 31 22  1  0  0  0
 22  1  1  0  0  0
  1  2  2  0  0  0
  2  3  1  0  0  0
  3  4  2  0  0  0
  4  5  1  0  0  0
  5 10  1  0  0  0
 10 12  1  0  0  0
 12 13  2  0  0  0
 13 14  1  0  0  0
 14 15  2  0  0  0
 15 18  1  0  0  0
 18 19  1  0  0  0
 18 20  2  0  0  0
 18 21  2  0  0  0
 15 16  1  0  0  0
 16 17  2  0  0  0
  5  6  2  0  0  0
  6  7  1  0  0  0
  7  8  2  0  0  0
  7  9  1  0  0  0
 31 32  1  0  0  0
 29 25  1  0  0  0
  6  1  1  0  0  0
 32 26  1  0  0  0
 17 12  1  0  0  0
 10 11  1  0  0  0
M  CHG 1   7   1
M  CHG 1   9  -1
M  END
> <minimizedAffinity>
-8.32918

> <CNNscore>
0.0042271456

> <CNNaffinity>
5.2065958977

> <CNN_VS>
0.0220090393

> <CNNaffinity_variance>
0.5731459856

$$$$
[H]c1c([H])c(N([H])c2nc(N3C([H])([H])C([H])([H])C([H])([H])C3([H])[H])c3c([H])c([H])c([H])c([H])c3n2)c([H])c([H])c1OC([H])([H])[H]


 25 28  0  0  0  0  0  0  0  0999 V2000
  -86.2845   33.1415   -1.0800 C   0  0  0  0  0  0  0  0  0  0  0  0
  -86.9754   32.0029   -1.1801 N   0  0  0  0  0  0  0  0  0  0  0  0
  -88.0918   31.8641   -1.9243 C   0  0  0  0  0  0  0  0  0  0  0  0
  -88.5433   32.9627   -2.6193 C   0  0  0  0  0  0  0  0  0  0  0  0
  -89.6749   32.9083   -3.3893 C   0  0  0  0  0  0  0  0  0  0  0  0
  -90.0790   34.0520   -4.0565 C   0  0  0  0  0  0  0  0  0  0  0  0
  -89.3935   35.2350   -3.9776 C   0  0  0  0  0  0  0  0  0  0  0  0
  -88.2623   35.3069   -3.2124 C   0  0  0  0  0  0  0  0  0  0  0  0
  -87.8377   34.1670   -2.5317 C   0  0  0  0  0  0  0  0  0  0  0  0
  -86.7443   34.1868   -1.7640 N   0  0  0  0  0  0  0  0  0  0  0  0
  -88.7423   30.5955   -1.9941 N   0  0  0  0  0  0  0  0  0  0  0  0
  -88.4973   29.5473   -2.9322 C   0  0  0  0  0  0  0  0  0  0  0  0
  -89.0008   28.2645   -2.2661 C   0  0  0  0  0  0  0  0  0  0  0  0
  -89.3449   28.6983   -0.8806 C   0  0  0  0  0  0  0  0  0  0  0  0
  -89.7803   30.1534   -1.0936 C   0  0  0  0  0  0  0  0  0  0  0  0
  -85.1362   33.1975   -0.2625 N   0  0  0  0  0  0  0  0  0  0  0  0
  -84.7842   34.1796   -0.0483 H   0  0  0  0  0  0  0  0  0  0  0  0
  -83.1498   29.9359    1.6187 C   0  0  0  0  0  0  0  0  0  0  0  0
  -82.4736   30.7459    0.7424 C   0  0  0  0  0  0  0  0  0  0  0  0
  -83.0918   31.8276    0.0927 C   0  0  0  0  0  0  0  0  0  0  0  0
  -84.4116   32.1304    0.3041 C   0  0  0  0  0  0  0  0  0  0  0  0
  -85.0865   31.2892    1.2042 C   0  0  0  0  0  0  0  0  0  0  0  0
  -84.4745   30.2326    1.8356 C   0  0  0  0  0  0  0  0  0  0  0  0
  -83.2829   27.7809    2.7402 C   0  0  0  0  0  0  0  0  0  0  0  0
  -82.5265   28.8722    2.2524 O   0  0  0  0  0  0  0  0  0  0  0  0
 24 25  1  0  0  0
 25 18  1  0  0  0
 18 19  2  0  0  0
 19 20  1  0  0  0
 20 21  2  0  0  0
 21 16  1  0  0  0
 16  1  1  0  0  0
  1  2  2  0  0  0
  2  3  1  0  0  0
  3 11  1  0  0  0
 11 12  1  0  0  0
 12 13  1  0  0  0
 13 14  1  0  0  0
 14 15  1  0  0  0
  3  4  2  0  0  0
  4  5  1  0  0  0
  5  6  2  0  0  0
  6  7  1  0  0  0
  7  8  2  0  0  0
  8  9  1  0  0  0
  9 10  2  0  0  0
 21 22  1  0  0  0
 22 23  2  0  0  0
 23 18  1  0  0  0
 10  1  1  0  0  0
 15 11  1  0  0  0
  9  4  1  0  0  0
 16 17  1  0  0  0
M  END
> <minimizedAffinity>
-8.11606

> <CNNscore>
0.3672420979

> <CNNaffinity>
6.0495977402

> <CNN_VS>
2.2216670513

> <CNNaffinity_variance>
0.1759319305

$$$$
[H]c1c([H])c(N([H])c2nc(N3C([H])([H])C([H])([H])C([H])([H])C3([H])[H])c3c([H])c([H])c([H])c([H])c3n2)c([H])c([H])c1OC([H])([H])[H]


 25 28  0  0  0  0  0  0  0  0999 V2000
  -87.1084   32.0074   -0.5602 C   0  0  0  0  0  0  0  0  0  0  0  0
  -87.4598   30.7474   -0.2903 N   0  0  0  0  0  0  0  0  0  0  0  0
  -86.6352   29.8416    0.2744 C   0  0  0  0  0  0  0  0  0  0  0  0
  -85.3567   30.2423    0.5889 C   0  0  0  0  0  0  0  0  0  0  0  0
  -84.4543   29.3809    1.1545 C   0  0  0  0  0  0  0  0  0  0  0  0
  -83.1817   29.8458    1.4388 C   0  0  0  0  0  0  0  0  0  0  0  0
  -82.7887   31.1314    1.1771 C   0  0  0  0  0  0  0  0  0  0  0  0
  -83.6770   32.0041    0.6116 C   0  0  0  0  0  0  0  0  0  0  0  0
  -84.9638   31.5567    0.3168 C   0  0  0  0  0  0  0  0  0  0  0  0
  -85.8662   32.3667   -0.2442 N   0  0  0  0  0  0  0  0  0  0  0  0
  -87.1143   28.5266    0.5545 N   0  0  0  0  0  0  0  0  0  0  0  0
  -87.2838   27.4516   -0.3700 C   0  0  0  0  0  0  0  0  0  0  0  0
  -87.2633   26.1718    0.4692 C   0  0  0  0  0  0  0  0  0  0  0  0
  -86.8972   26.6509    1.8340 C   0  0  0  0  0  0  0  0  0  0  0  0
  -87.5097   28.0567    1.8609 C   0  0  0  0  0  0  0  0  0  0  0  0
  -88.0343   32.8805   -1.1689 N   0  0  0  0  0  0  0  0  0  0  0  0
  -88.8751   33.1350   -0.5668 H   0  0  0  0  0  0  0  0  0  0  0  0
  -87.7958   34.8459   -4.9375 C   0  0  0  0  0  0  0  0  0  0  0  0
  -88.3970   33.6175   -4.8341 C   0  0  0  0  0  0  0  0  0  0  0  0
  -88.4902   32.9294   -3.6126 C   0  0  0  0  0  0  0  0  0  0  0  0
  -87.9816   33.4555   -2.4539 C   0  0  0  0  0  0  0  0  0  0  0  0
  -87.3697   34.7137   -2.5806 C   0  0  0  0  0  0  0  0  0  0  0  0
  -87.2824   35.3803   -3.7796 C   0  0  0  0  0  0  0  0  0  0  0  0
  -87.0701   36.7708   -6.2366 C   0  0  0  0  0  0  0  0  0  0  0  0
  -87.7116   35.5130   -6.1497 O   0  0  0  0  0  0  0  0  0  0  0  0
 24 25  1  0  0  0
 25 18  1  0  0  0
 18 19  2  0  0  0
 19 20  1  0  0  0
 20 21  2  0  0  0
 21 16  1  0  0  0
 16  1  1  0  0  0
  1  2  2  0  0  0
  2  3  1  0  0  0
  3 11  1  0  0  0
 11 12  1  0  0  0
 12 13  1  0  0  0
 13 14  1  0  0  0
 14 15  1  0  0  0
  3  4  2  0  0  0
  4  5  1  0  0  0
  5  6  2  0  0  0
  6  7  1  0  0  0
  7  8  2  0  0  0
  8  9  1  0  0  0
  9 10  2  0  0  0
 21 22  1  0  0  0
 22 23  2  0  0  0
 23 18  1  0  0  0
 10  1  1  0  0  0
 15 11  1  0  0  0
  9  4  1  0  0  0
 16 17  1  0  0  0
M  END
> <minimizedAffinity>
-8.52450

> <CNNscore>
0.2677010596

> <CNNaffinity>
5.8788533211

> <CNN_VS>
1.5737752914

> <CNNaffinity_variance>
0.1463682801

$$$$
[H]c1c([H])c(N([H])c2nc(N3C([H])([H])C([H])([H])C([H])([H])C3([H])[H])c3c([H])c([H])c([H])c([H])c3n2)c([H])c([H])c1OC([H])([H])[H]


 25 28  0  0  0  0  0  0  0  0999 V2000
  -88.8720   30.0017   -0.2763 C   0  0  0  0  0  0  0  0  0  0  0  0
  -87.6462   29.9434    0.2509 N   0  0  0  0  0  0  0  0  0  0  0  0
  -86.6865   30.8640    0.0255 C   0  0  0  0  0  0  0  0  0  0  0  0
  -86.9913   31.9240   -0.7976 C   0  0  0  0  0  0  0  0  0  0  0  0
  -86.0698   32.8956   -1.0859 C   0  0  0  0  0  0  0  0  0  0  0  0
  -86.4386   33.9310   -1.9277 C   0  0  0  0  0  0  0  0  0  0  0  0
  -87.6868   34.0226   -2.4839 C   0  0  0  0  0  0  0  0  0  0  0  0
  -88.6184   33.0603   -2.2073 C   0  0  0  0  0  0  0  0  0  0  0  0
  -88.2680   32.0086   -1.3622 C   0  0  0  0  0  0  0  0  0  0  0  0
  -89.1383   31.0386   -1.0676 N   0  0  0  0  0  0  0  0  0  0  0  0
  -85.4158   30.7318    0.6621 N   0  0  0  0  0  0  0  0  0  0  0  0
  -84.3017   29.9568    0.2185 C   0  0  0  0  0  0  0  0  0  0  0  0
  -83.0710   30.5733    0.8878 C   0  0  0  0  0  0  0  0  0  0  0  0
  -83.6052   31.8020    1.5445 C   0  0  0  0  0  0  0  0  0  0  0  0
  -85.0404   31.3877    1.8919 C   0  0  0  0  0  0  0  0  0  0  0  0
  -89.8064   28.9823    0.0023 N   0  0  0  0  0  0  0  0  0  0  0  0
  -90.4192   28.6968   -0.8206 H   0  0  0  0  0  0  0  0  0  0  0  0
  -90.5722   27.1392    3.7625 C   0  0  0  0  0  0  0  0  0  0  0  0
  -89.7459   26.5339    2.8503 C   0  0  0  0  0  0  0  0  0  0  0  0
  -89.4725   27.1020    1.5946 C   0  0  0  0  0  0  0  0  0  0  0  0
  -90.0214   28.2991    1.2155 C   0  0  0  0  0  0  0  0  0  0  0  0
  -90.8648   28.9028    2.1631 C   0  0  0  0  0  0  0  0  0  0  0  0
  -91.1275   28.3402    3.3895 C   0  0  0  0  0  0  0  0  0  0  0  0
  -89.8353   26.5328    6.0005 C   0  0  0  0  0  0  0  0  0  0  0  0
  -90.8325   26.5666    4.9978 O   0  0  0  0  0  0  0  0  0  0  0  0
 24 25  1  0  0  0
 25 18  1  0  0  0
 18 19  2  0  0  0
 19 20  1  0  0  0
 20 21  2  0  0  0
 21 16  1  0  0  0
 16  1  1  0  0  0
  1  2  2  0  0  0
  2  3  1  0  0  0
  3 11  1  0  0  0
 11 12  1  0  0  0
 12 13  1  0  0  0
 13 14  1  0  0  0
 14 15  1  0  0  0
  3  4  2  0  0  0
  4  5  1  0  0  0
  5  6  2  0  0  0
  6  7  1  0  0  0
  7  8  2  0  0  0
  8  9  1  0  0  0
  9 10  2  0  0  0
 21 22  1  0  0  0
 22 23  2  0  0  0
 23 18  1  0  0  0
 10  1  1  0  0  0
 15 11  1  0  0  0
  9  4  1  0  0  0
 16 17  1  0  0  0
M  END
> <minimizedAffinity>
-8.09855

> <CNNscore>
0.2503373623

> <CNNaffinity>
6.0919551849

> <CNN_VS>
1.5250439644

> <CNNaffinity_variance>
0.0273096468

$$$$
[H]c1c([H])c(N([H])c2nc(N3C([H])([H])C([H])([H])C([H])([H])C3([H])[H])c3c([H])c([H])c([H])c([H])c3n2)c([H])c([H])c1OC([H])([H])[H]


 25 28  0  0  0  0  0  0  0  0999 V2000
  -88.3890   30.1016   -0.6244 C   0  0  0  0  0  0  0  0  0  0  0  0
  -88.6731   31.0067   -1.5645 N   0  0  0  0  0  0  0  0  0  0  0  0
  -87.8657   32.0394   -1.8821 C   0  0  0  0  0  0  0  0  0  0  0  0
  -86.6804   32.1656   -1.1943 C   0  0  0  0  0  0  0  0  0  0  0  0
  -85.8098   33.1921   -1.4486 C   0  0  0  0  0  0  0  0  0  0  0  0
  -84.6381   33.2654   -0.7150 C   0  0  0  0  0  0  0  0  0  0  0  0
  -84.3146   32.3537    0.2544 C   0  0  0  0  0  0  0  0  0  0  0  0
  -85.1731   31.3233    0.5218 C   0  0  0  0  0  0  0  0  0  0  0  0
  -86.3590   31.2306   -0.2050 C   0  0  0  0  0  0  0  0  0  0  0  0
  -87.2354   30.2485    0.0236 N   0  0  0  0  0  0  0  0  0  0  0  0
  -88.2421   32.9366   -2.9265 N   0  0  0  0  0  0  0  0  0  0  0  0
  -87.8875   32.8555   -4.3072 C   0  0  0  0  0  0  0  0  0  0  0  0
  -88.9492   33.6618   -5.0591 C   0  0  0  0  0  0  0  0  0  0  0  0
  -89.9487   33.9991   -4.0039 C   0  0  0  0  0  0  0  0  0  0  0  0
  -89.0742   34.1026   -2.7482 C   0  0  0  0  0  0  0  0  0  0  0  0
  -89.3036   29.0637   -0.3483 N   0  0  0  0  0  0  0  0  0  0  0  0
  -89.6898   28.5647   -1.2063 H   0  0  0  0  0  0  0  0  0  0  0  0
  -90.5171   27.4699    3.4079 C   0  0  0  0  0  0  0  0  0  0  0  0
  -91.1919   28.5279    2.8542 C   0  0  0  0  0  0  0  0  0  0  0  0
  -90.8206   29.0907    1.6215 C   0  0  0  0  0  0  0  0  0  0  0  0
  -89.7577   28.6067    0.9045 C   0  0  0  0  0  0  0  0  0  0  0  0
  -89.0796   27.5236    1.4883 C   0  0  0  0  0  0  0  0  0  0  0  0
  -89.4491   26.9788    2.6951 C   0  0  0  0  0  0  0  0  0  0  0  0
  -89.9564   26.7836    5.6738 C   0  0  0  0  0  0  0  0  0  0  0  0
  -90.8953   26.9249    4.6251 O   0  0  0  0  0  0  0  0  0  0  0  0
 24 25  1  0  0  0
 25 18  1  0  0  0
 18 19  2  0  0  0
 19 20  1  0  0  0
 20 21  2  0  0  0
 21 16  1  0  0  0
 16  1  1  0  0  0
  1  2  2  0  0  0
  2  3  1  0  0  0
  3 11  1  0  0  0
 11 12  1  0  0  0
 12 13  1  0  0  0
 13 14  1  0  0  0
 14 15  1  0  0  0
  3  4  2  0  0  0
  4  5  1  0  0  0
  5  6  2  0  0  0
  6  7  1  0  0  0
  7  8  2  0  0  0
  8  9  1  0  0  0
  9 10  2  0  0  0
 21 22  1  0  0  0
 22 23  2  0  0  0
 23 18  1  0  0  0
 10  1  1  0  0  0
 15 11  1  0  0  0
  9  4  1  0  0  0
 16 17  1  0  0  0
M  END
> <minimizedAffinity>
-7.64536

> <CNNscore>
0.1570758671

> <CNNaffinity>
5.7989683151

> <CNN_VS>
0.9108780026

> <CNNaffinity_variance>
0.0803481638

$$$$
[H]c1c([H])c(N([H])c2nc(N3C([H])([H])C([H])([H])C([H])([H])C3([H])[H])c3c([H])c([H])c([H])c([H])c3n2)c([H])c([H])c1OC([H])([H])[H]


 25 28  0  0  0  0  0  0  0  0999 V2000
  -87.4305   32.2374   -0.5443 C   0  0  0  0  0  0  0  0  0  0  0  0
  -87.5463   30.9751   -0.1239 N   0  0  0  0  0  0  0  0  0  0  0  0
  -86.5059   30.2209    0.2861 C   0  0  0  0  0  0  0  0  0  0  0  0
  -85.2523   30.7884    0.2680 C   0  0  0  0  0  0  0  0  0  0  0  0
  -84.1422   30.0869    0.6580 C   0  0  0  0  0  0  0  0  0  0  0  0
  -82.9093   30.7146    0.6081 C   0  0  0  0  0  0  0  0  0  0  0  0
  -82.7548   32.0078    0.1844 C   0  0  0  0  0  0  0  0  0  0  0  0
  -83.8526   32.7220   -0.2095 C   0  0  0  0  0  0  0  0  0  0  0  0
  -85.1038   32.1091   -0.1675 C   0  0  0  0  0  0  0  0  0  0  0  0
  -86.2061   32.7601   -0.5500 N   0  0  0  0  0  0  0  0  0  0  0  0
  -86.7356   28.8906    0.7497 N   0  0  0  0  0  0  0  0  0  0  0  0
  -87.2171   27.7806   -0.0085 C   0  0  0  0  0  0  0  0  0  0  0  0
  -86.7593   26.5297    0.7455 C   0  0  0  0  0  0  0  0  0  0  0  0
  -85.8748   27.0692    1.8192 C   0  0  0  0  0  0  0  0  0  0  0  0
  -86.5033   28.4395    2.1011 C   0  0  0  0  0  0  0  0  0  0  0  0
  -88.5743   32.9440   -0.9714 N   0  0  0  0  0  0  0  0  0  0  0  0
  -89.1962   33.3088   -0.1875 H   0  0  0  0  0  0  0  0  0  0  0  0
  -89.8155   33.5445   -4.9989 C   0  0  0  0  0  0  0  0  0  0  0  0
  -89.4222   34.6097   -4.2295 C   0  0  0  0  0  0  0  0  0  0  0  0
  -89.0135   34.4586   -2.8937 C   0  0  0  0  0  0  0  0  0  0  0  0
  -88.9864   33.2296   -2.2879 C   0  0  0  0  0  0  0  0  0  0  0  0
  -89.3931   32.1518   -3.0921 C   0  0  0  0  0  0  0  0  0  0  0  0
  -89.7919   32.3082   -4.3982 C   0  0  0  0  0  0  0  0  0  0  0  0
  -90.4148   35.0030   -6.8517 C   0  0  0  0  0  0  0  0  0  0  0  0
  -90.2162   33.7091   -6.3157 O   0  0  0  0  0  0  0  0  0  0  0  0
 24 25  1  0  0  0
 25 18  1  0  0  0
 18 19  2  0  0  0
 19 20  1  0  0  0
 20 21  2  0  0  0
 21 16  1  0  0  0
 16  1  1  0  0  0
  1  2  2  0  0  0
  2  3  1  0  0  0
  3 11  1  0  0  0
 11 12  1  0  0  0
 12 13  1  0  0  0
 13 14  1  0  0  0
 14 15  1  0  0  0
  3  4  2  0  0  0
  4  5  1  0  0  0
  5  6  2  0  0  0
  6  7  1  0  0  0
  7  8  2  0  0  0
  8  9  1  0  0  0
  9 10  2  0  0  0
 21 22  1  0  0  0
 22 23  2  0  0  0
 23 18  1  0  0  0
 10  1  1  0  0  0
 15 11  1  0  0  0
  9  4  1  0  0  0
 16 17  1  0  0  0
M  END
> <minimizedAffinity>
-8.01337

> <CNNscore>
0.1352632642

> <CNNaffinity>
5.6671915054

> <CNN_VS>
0.7665628195

> <CNNaffinity_variance>
0.1888398826

$$$$
[H]c1c([H])c(N([H])c2nc(N3C([H])([H])C([H])([H])C([H])([H])C3([H])[H])c3c([H])c([H])c([H])c([H])c3n2)c([H])c([H])c1OC([H])([H])[H]


 25 28  0  0  0  0  0  0  0  0999 V2000
  -85.9425   28.5760    1.2922 C   0  0  0  0  0  0  0  0  0  0  0  0
  -86.7619   29.3192    0.5439 N   0  0  0  0  0  0  0  0  0  0  0  0
  -86.4095   30.4945   -0.0163 C   0  0  0  0  0  0  0  0  0  0  0  0
  -85.1297   30.9525    0.1986 C   0  0  0  0  0  0  0  0  0  0  0  0
  -84.6964   32.1415   -0.3256 C   0  0  0  0  0  0  0  0  0  0  0  0
  -83.3991   32.5482   -0.0646 C   0  0  0  0  0  0  0  0  0  0  0  0
  -82.5321   31.8102    0.6966 C   0  0  0  0  0  0  0  0  0  0  0  0
  -82.9490   30.6212    1.2285 C   0  0  0  0  0  0  0  0  0  0  0  0
  -84.2516   30.1929    0.9784 C   0  0  0  0  0  0  0  0  0  0  0  0
  -84.7106   29.0436    1.4821 N   0  0  0  0  0  0  0  0  0  0  0  0
  -87.3473   31.2004   -0.8285 N   0  0  0  0  0  0  0  0  0  0  0  0
  -88.1259   32.3395   -0.4610 C   0  0  0  0  0  0  0  0  0  0  0  0
  -88.5053   33.0275   -1.7746 C   0  0  0  0  0  0  0  0  0  0  0  0
  -87.7288   32.2760   -2.8034 C   0  0  0  0  0  0  0  0  0  0  0  0
  -87.6624   30.8686   -2.1976 C   0  0  0  0  0  0  0  0  0  0  0  0
  -86.4048   27.3667    1.8523 N   0  0  0  0  0  0  0  0  0  0  0  0
  -85.7727   26.9465    2.5994 H   0  0  0  0  0  0  0  0  0  0  0  0
  -90.0466   25.2575    1.2109 C   0  0  0  0  0  0  0  0  0  0  0  0
  -89.0696   25.2607    0.2483 C   0  0  0  0  0  0  0  0  0  0  0  0
  -87.8567   25.9503    0.4142 C   0  0  0  0  0  0  0  0  0  0  0  0
  -87.5864   26.6593    1.5554 C   0  0  0  0  0  0  0  0  0  0  0  0
  -88.5992   26.6441    2.5288 C   0  0  0  0  0  0  0  0  0  0  0  0
  -89.7835   25.9671    2.3586 C   0  0  0  0  0  0  0  0  0  0  0  0
  -92.1151   24.9144   -0.0231 C   0  0  0  0  0  0  0  0  0  0  0  0
  -91.2384   24.5724    1.0331 O   0  0  0  0  0  0  0  0  0  0  0  0
 24 25  1  0  0  0
 25 18  1  0  0  0
 18 19  2  0  0  0
 19 20  1  0  0  0
 20 21  2  0  0  0
 21 16  1  0  0  0
 16  1  1  0  0  0
  1  2  2  0  0  0
  2  3  1  0  0  0
  3 11  1  0  0  0
 11 12  1  0  0  0
 12 13  1  0  0  0
 13 14  1  0  0  0
 14 15  1  0  0  0
  3  4  2  0  0  0
  4  5  1  0  0  0
  5  6  2  0  0  0
  6  7  1  0  0  0
  7  8  2  0  0  0
  8  9  1  0  0  0
  9 10  2  0  0  0
 21 22  1  0  0  0
 22 23  2  0  0  0
 23 18  1  0  0  0
 10  1  1  0  0  0
 15 11  1  0  0  0
  9  4  1  0  0  0
 16 17  1  0  0  0
M  END
> <minimizedAffinity>
-8.02284

> <CNNscore>
0.1185877472

> <CNNaffinity>
5.9573936462

> <CNN_VS>
0.7064738870

> <CNNaffinity_variance>
0.2184858024

$$$$
[H]c1c([H])c(N([H])c2nc(N3C([H])([H])C([H])([H])C([H])([H])C3([H])[H])c3c([H])c([H])c([H])c([H])c3n2)c([H])c([H])c1OC([H])([H])[H]


 25 28  0  0  0  0  0  0  0  0999 V2000
  -86.2097   31.3638   -0.0056 C   0  0  0  0  0  0  0  0  0  0  0  0
  -87.0129   30.3037    0.1158 N   0  0  0  0  0  0  0  0  0  0  0  0
  -86.6502   29.1503    0.7137 C   0  0  0  0  0  0  0  0  0  0  0  0
  -85.3762   29.0637    1.2270 C   0  0  0  0  0  0  0  0  0  0  0  0
  -84.9262   27.9243    1.8397 C   0  0  0  0  0  0  0  0  0  0  0  0
  -83.6308   27.9005    2.3274 C   0  0  0  0  0  0  0  0  0  0  0  0
  -82.7814   28.9697    2.2217 C   0  0  0  0  0  0  0  0  0  0  0  0
  -83.2144   30.1147    1.6119 C   0  0  0  0  0  0  0  0  0  0  0  0
  -84.5153   30.1601    1.1133 C   0  0  0  0  0  0  0  0  0  0  0  0
  -84.9838   31.2514    0.5011 N   0  0  0  0  0  0  0  0  0  0  0  0
  -87.5923   28.0837    0.8238 N   0  0  0  0  0  0  0  0  0  0  0  0
  -87.8649   27.0663   -0.1403 C   0  0  0  0  0  0  0  0  0  0  0  0
  -88.4851   25.9056    0.6413 C   0  0  0  0  0  0  0  0  0  0  0  0
  -88.3439   26.3248    2.0662 C   0  0  0  0  0  0  0  0  0  0  0  0
  -88.4418   27.8522    1.9677 C   0  0  0  0  0  0  0  0  0  0  0  0
  -86.6707   32.5236   -0.6630 N   0  0  0  0  0  0  0  0  0  0  0  0
  -86.3156   33.4418   -0.2570 H   0  0  0  0  0  0  0  0  0  0  0  0
  -89.0360   32.7878   -4.1926 C   0  0  0  0  0  0  0  0  0  0  0  0
  -89.5918   33.0471   -2.9658 C   0  0  0  0  0  0  0  0  0  0  0  0
  -88.8508   32.9634   -1.7749 C   0  0  0  0  0  0  0  0  0  0  0  0
  -87.5250   32.6164   -1.7794 C   0  0  0  0  0  0  0  0  0  0  0  0
  -86.9746   32.3544   -3.0451 C   0  0  0  0  0  0  0  0  0  0  0  0
  -87.7065   32.4383   -4.2057 C   0  0  0  0  0  0  0  0  0  0  0  0
  -91.0739   33.4457   -5.3475 C   0  0  0  0  0  0  0  0  0  0  0  0
  -89.7797   32.8746   -5.3592 O   0  0  0  0  0  0  0  0  0  0  0  0
 24 25  1  0  0  0
 25 18  1  0  0  0
 18 19  2  0  0  0
 19 20  1  0  0  0
 20 21  2  0  0  0
 21 16  1  0  0  0
 16  1  1  0  0  0
  1  2  2  0  0  0
  2  3  1  0  0  0
  3 11  1  0  0  0
 11 12  1  0  0  0
 12 13  1  0  0  0
 13 14  1  0  0  0
 14 15  1  0  0  0
  3  4  2  0  0  0
  4  5  1  0  0  0
  5  6  2  0  0  0
  6  7  1  0  0  0
  7  8  2  0  0  0
  8  9  1  0  0  0
  9 10  2  0  0  0
 21 22  1  0  0  0
 22 23  2  0  0  0
 23 18  1  0  0  0
 10  1  1  0  0  0
 15 11  1  0  0  0
  9  4  1  0  0  0
 16 17  1  0  0  0
M  END
> <minimizedAffinity>
-8.22318

> <CNNscore>
0.0963360369

> <CNNaffinity>
5.8060884476

> <CNN_VS>
0.5593355298

> <CNNaffinity_variance>
0.1671511382

$$$$
[H]c1c([H])c(N([H])c2nc(N3C([H])([H])C([H])([H])C([H])([H])C3([H])[H])c3c([H])c([H])c([H])c([H])c3n2)c([H])c([H])c1OC([H])([H])[H]


 25 28  0  0  0  0  0  0  0  0999 V2000
  -86.9644   28.7410    0.1132 C   0  0  0  0  0  0  0  0  0  0  0  0
  -87.3361   29.9264   -0.3771 N   0  0  0  0  0  0  0  0  0  0  0  0
  -86.5724   31.0368   -0.3191 C   0  0  0  0  0  0  0  0  0  0  0  0
  -85.3385   30.9392    0.2824 C   0  0  0  0  0  0  0  0  0  0  0  0
  -84.5068   32.0221    0.3919 C   0  0  0  0  0  0  0  0  0  0  0  0
  -83.2819   31.8575    1.0157 C   0  0  0  0  0  0  0  0  0  0  0  0
  -82.8686   30.6564    1.5278 C   0  0  0  0  0  0  0  0  0  0  0  0
  -83.6872   29.5654    1.4279 C   0  0  0  0  0  0  0  0  0  0  0  0
  -84.9253   29.7089    0.8038 C   0  0  0  0  0  0  0  0  0  0  0  0
  -85.7656   28.6766    0.6884 N   0  0  0  0  0  0  0  0  0  0  0  0
  -87.0442   32.2512   -0.9021 N   0  0  0  0  0  0  0  0  0  0  0  0
  -86.3088   33.1621   -1.7196 C   0  0  0  0  0  0  0  0  0  0  0  0
  -87.3544   33.9436   -2.5189 C   0  0  0  0  0  0  0  0  0  0  0  0
  -88.6364   33.2546   -2.1906 C   0  0  0  0  0  0  0  0  0  0  0  0
  -88.3857   32.7647   -0.7591 C   0  0  0  0  0  0  0  0  0  0  0  0
  -87.8381   27.6373    0.0221 N   0  0  0  0  0  0  0  0  0  0  0  0
  -87.5205   26.7678    0.5487 H   0  0  0  0  0  0  0  0  0  0  0  0
  -91.6706   27.3959   -1.8153 C   0  0  0  0  0  0  0  0  0  0  0  0
  -90.5430   27.0563   -2.5185 C   0  0  0  0  0  0  0  0  0  0  0  0
  -89.2581   27.1293   -1.9547 C   0  0  0  0  0  0  0  0  0  0  0  0
  -89.0655   27.5461   -0.6634 C   0  0  0  0  0  0  0  0  0  0  0  0
  -90.2322   27.8896    0.0397 C   0  0  0  0  0  0  0  0  0  0  0  0
  -91.4858   27.8157   -0.5194 C   0  0  0  0  0  0  0  0  0  0  0  0
  -93.7348   28.4758   -2.5169 C   0  0  0  0  0  0  0  0  0  0  0  0
  -92.9320   27.3186   -2.3850 O   0  0  0  0  0  0  0  0  0  0  0  0
 24 25  1  0  0  0
 25 18  1  0  0  0
 18 19  2  0  0  0
 19 20  1  0  0  0
 20 21  2  0  0  0
 21 16  1  0  0  0
 16  1  1  0  0  0
  1  2  2  0  0  0
  2  3  1  0  0  0
  3 11  1  0  0  0
 11 12  1  0  0  0
 12 13  1  0  0  0
 13 14  1  0  0  0
 14 15  1  0  0  0
  3  4  2  0  0  0
  4  5  1  0  0  0
  5  6  2  0  0  0
  6  7  1  0  0  0
  7  8  2  0  0  0
  8  9  1  0  0  0
  9 10  2  0  0  0
 21 22  1  0  0  0
 22 23  2  0  0  0
 23 18  1  0  0  0
 10  1  1  0  0  0
 15 11  1  0  0  0
  9  4  1  0  0  0
 16 17  1  0  0  0
M  END
> <minimizedAffinity>
-7.64734

> <CNNscore>
0.0828069821

> <CNNaffinity>
5.7256879807

> <CNN_VS>
0.4741269350

> <CNNaffinity_variance>
0.1761948168

$$$$
[H]c1c([H])c(N([H])c2nc(N3C([H])([H])C([H])([H])C([H])([H])C3([H])[H])c3c([H])c([H])c([H])c([H])c3n2)c([H])c([H])c1OC([H])([H])[H]


 25 28  0  0  0  0  0  0  0  0999 V2000
  -87.0130   28.5411   -1.1430 C   0  0  0  0  0  0  0  0  0  0  0  0
  -87.4005   29.7875   -1.4259 N   0  0  0  0  0  0  0  0  0  0  0  0
  -86.8817   30.8869   -0.8416 C   0  0  0  0  0  0  0  0  0  0  0  0
  -85.8956   30.7103    0.1021 C   0  0  0  0  0  0  0  0  0  0  0  0
  -85.3245   31.7737    0.7496 C   0  0  0  0  0  0  0  0  0  0  0  0
  -84.3431   31.5261    1.6941 C   0  0  0  0  0  0  0  0  0  0  0  0
  -83.9206   30.2615    2.0071 C   0  0  0  0  0  0  0  0  0  0  0  0
  -84.4811   29.1885    1.3707 C   0  0  0  0  0  0  0  0  0  0  0  0
  -85.4715   29.4152    0.4163 C   0  0  0  0  0  0  0  0  0  0  0  0
  -86.0570   28.4012   -0.2272 N   0  0  0  0  0  0  0  0  0  0  0  0
  -87.3391   32.1803   -1.2357 N   0  0  0  0  0  0  0  0  0  0  0  0
  -86.6632   33.1202   -2.0713 C   0  0  0  0  0  0  0  0  0  0  0  0
  -87.7512   34.0409   -2.6295 C   0  0  0  0  0  0  0  0  0  0  0  0
  -89.0206   33.4039   -2.1725 C   0  0  0  0  0  0  0  0  0  0  0  0
  -88.6023   32.7596   -0.8451 C   0  0  0  0  0  0  0  0  0  0  0  0
  -87.6258   27.4496   -1.7933 N   0  0  0  0  0  0  0  0  0  0  0  0
  -87.1416   27.1285   -2.6859 H   0  0  0  0  0  0  0  0  0  0  0  0
  -90.9686   25.1920   -0.4327 C   0  0  0  0  0  0  0  0  0  0  0  0
  -91.0036   25.8123   -1.6555 C   0  0  0  0  0  0  0  0  0  0  0  0
  -89.9271   26.5742   -2.1401 C   0  0  0  0  0  0  0  0  0  0  0  0
  -88.7787   26.7366   -1.4099 C   0  0  0  0  0  0  0  0  0  0  0  0
  -88.7626   26.0940   -0.1607 C   0  0  0  0  0  0  0  0  0  0  0  0
  -89.8203   25.3506    0.3064 C   0  0  0  0  0  0  0  0  0  0  0  0
  -91.9208   23.6754    1.2143 C   0  0  0  0  0  0  0  0  0  0  0  0
  -92.0386   24.4433    0.0322 O   0  0  0  0  0  0  0  0  0  0  0  0
 24 25  1  0  0  0
 25 18  1  0  0  0
 18 19  2  0  0  0
 19 20  1  0  0  0
 20 21  2  0  0  0
 21 16  1  0  0  0
 16  1  1  0  0  0
  1  2  2  0  0  0
  2  3  1  0  0  0
  3 11  1  0  0  0
 11 12  1  0  0  0
 12 13  1  0  0  0
 13 14  1  0  0  0
 14 15  1  0  0  0
  3  4  2  0  0  0
  4  5  1  0  0  0
  5  6  2  0  0  0
  6  7  1  0  0  0
  7  8  2  0  0  0
  8  9  1  0  0  0
  9 10  2  0  0  0
 21 22  1  0  0  0
 22 23  2  0  0  0
 23 18  1  0  0  0
 10  1  1  0  0  0
 15 11  1  0  0  0
  9  4  1  0  0  0
 16 17  1  0  0  0
M  END
> <minimizedAffinity>
-7.61708

> <CNNscore>
0.0793889686

> <CNNaffinity>
5.5379066467

> <CNN_VS>
0.4396486878

> <CNNaffinity_variance>
0.2886061668

$$$$
[H]OC12N(C([H])([H])c3c([H])c([H])c(OC([H])([H])[H])c([H])c3[H])C3([H])C4([H])C5([H])C([H])([H])C([H])(C14[H])C1([H])C2([H])C3([H])C51[H]


 23 29  0  0  0  0  0  0  0  0999 V2000
  -86.9512   29.9380   -0.1490 N   0  0  0  0  0  0  0  0  0  0  0  0
  -85.8027   30.8191   -0.3122 C   0  0  0  0  0  0  0  0  0  0  0  0
  -85.7762   31.4463    1.0644 C   0  0  0  0  0  0  0  0  0  0  0  0
  -84.3183   31.6385    1.3657 C   0  0  0  0  0  0  0  0  0  0  0  0
  -84.3027   31.3206    2.8658 C   0  0  0  0  0  0  0  0  0  0  0  0
  -84.9981   29.9564    2.7471 C   0  0  0  0  0  0  0  0  0  0  0  0
  -84.1466   29.2784    1.7221 C   0  0  0  0  0  0  0  0  0  0  0  0
  -83.6886   30.4139    0.7954 C   0  0  0  0  0  0  0  0  0  0  0  0
  -84.6083   29.9204   -0.2798 C   0  0  0  0  0  0  0  0  0  0  0  0
  -85.0520   28.7877    0.6489 C   0  0  0  0  0  0  0  0  0  0  0  0
  -86.4658   29.1890    0.9843 C   0  0  0  0  0  0  0  0  0  0  0  0
  -87.2560   28.2073    1.4607 O   0  0  0  0  0  0  0  0  0  0  0  0
  -86.2222   30.3225    1.9790 C   0  0  0  0  0  0  0  0  0  0  0  0
  -86.7299   27.4059    1.7020 H   0  0  0  0  0  0  0  0  0  0  0  0
  -87.2350   29.1751   -1.3194 C   0  0  0  0  0  0  0  0  0  0  0  0
  -89.6410   31.5549   -3.9918 C   0  0  0  0  0  0  0  0  0  0  0  0
  -88.4766   30.9551   -4.4188 C   0  0  0  0  0  0  0  0  0  0  0  0
  -87.7051   30.1971   -3.5655 C   0  0  0  0  0  0  0  0  0  0  0  0
  -88.0607   29.9998   -2.2348 C   0  0  0  0  0  0  0  0  0  0  0  0
  -89.2436   30.6165   -1.8237 C   0  0  0  0  0  0  0  0  0  0  0  0
  -90.0130   31.3735   -2.6789 C   0  0  0  0  0  0  0  0  0  0  0  0
  -89.8706   33.4430   -5.5404 C   0  0  0  0  0  0  0  0  0  0  0  0
  -90.4134   32.3220   -4.8725 O   0  0  0  0  0  0  0  0  0  0  0  0
 22 23  1  0  0  0
 23 16  1  0  0  0
 16 17  2  0  0  0
 17 18  1  0  0  0
 18 19  2  0  0  0
 19 15  1  0  0  0
 15  1  1  0  0  0
  1  2  1  0  0  0
  2  3  1  0  0  0
  3  4  1  0  0  0
  4  5  1  0  0  0
  5  6  1  0  0  0
  6  7  1  0  0  0
  7  8  1  0  0  0
  8  9  1  0  0  0
  9 10  1  0  0  0
 10 11  1  0  0  0
 11 12  1  0  0  0
 11 13  1  0  0  0
 19 20  1  0  0  0
 20 21  2  0  0  0
 21 16  1  0  0  0
 11  1  1  0  0  0
  9  2  1  0  0  0
 13  3  1  0  0  0
  8  4  1  0  0  0
 13  6  1  0  0  0
 10  7  1  0  0  0
 12 14  1  0  0  0
M  END
> <minimizedAffinity>
-6.59981

> <CNNscore>
0.3033731282

> <CNNaffinity>
5.5285716057

> <CNN_VS>
1.6772201061

> <CNNaffinity_variance>
0.1849612594

$$$$
[H]OC12N(C([H])([H])c3c([H])c([H])c(OC([H])([H])[H])c([H])c3[H])C3([H])C4([H])C5([H])C([H])([H])C([H])(C14[H])C1([H])C2([H])C3([H])C51[H]


 23 29  0  0  0  0  0  0  0  0999 V2000
  -86.1464   30.7974   -0.2480 N   0  0  0  0  0  0  0  0  0  0  0  0
  -86.0009   29.6858    0.6821 C   0  0  0  0  0  0  0  0  0  0  0  0
  -84.5422   29.3587    0.4483 C   0  0  0  0  0  0  0  0  0  0  0  0
  -84.0273   28.9378    1.7940 C   0  0  0  0  0  0  0  0  0  0  0  0
  -82.6191   29.5431    1.7519 C   0  0  0  0  0  0  0  0  0  0  0  0
  -83.0683   30.9677    1.3946 C   0  0  0  0  0  0  0  0  0  0  0  0
  -84.0807   31.2351    2.4618 C   0  0  0  0  0  0  0  0  0  0  0  0
  -84.7226   29.8662    2.7300 C   0  0  0  0  0  0  0  0  0  0  0  0
  -85.9775   30.3088    2.0410 C   0  0  0  0  0  0  0  0  0  0  0  0
  -85.3313   31.6725    1.7858 C   0  0  0  0  0  0  0  0  0  0  0  0
  -85.1131   31.6452    0.2945 C   0  0  0  0  0  0  0  0  0  0  0  0
  -84.9253   32.8434   -0.2921 O   0  0  0  0  0  0  0  0  0  0  0  0
  -83.9085   30.7115    0.1901 C   0  0  0  0  0  0  0  0  0  0  0  0
  -84.7663   33.5523    0.3783 H   0  0  0  0  0  0  0  0  0  0  0  0
  -87.4611   31.3487   -0.2510 C   0  0  0  0  0  0  0  0  0  0  0  0
  -88.1107   33.3774   -4.0003 C   0  0  0  0  0  0  0  0  0  0  0  0
  -87.7542   32.0473   -3.9582 C   0  0  0  0  0  0  0  0  0  0  0  0
  -87.5431   31.3985   -2.7613 C   0  0  0  0  0  0  0  0  0  0  0  0
  -87.6784   32.0505   -1.5395 C   0  0  0  0  0  0  0  0  0  0  0  0
  -88.0401   33.3971   -1.6057 C   0  0  0  0  0  0  0  0  0  0  0  0
  -88.2506   34.0431   -2.8036 C   0  0  0  0  0  0  0  0  0  0  0  0
  -87.9273   35.3634   -5.4277 C   0  0  0  0  0  0  0  0  0  0  0  0
  -88.3216   34.0214   -5.2256 O   0  0  0  0  0  0  0  0  0  0  0  0
 22 23  1  0  0  0
 23 16  1  0  0  0
 16 17  2  0  0  0
 17 18  1  0  0  0
 18 19  2  0  0  0
 19 15  1  0  0  0
 15  1  1  0  0  0
  1  2  1  0  0  0
  2  3  1  0  0  0
  3  4  1  0  0  0
  4  5  1  0  0  0
  5  6  1  0  0  0
  6  7  1  0  0  0
  7  8  1  0  0  0
  8  9  1  0  0  0
  9 10  1  0  0  0
 10 11  1  0  0  0
 11 12  1  0  0  0
 11 13  1  0  0  0
 19 20  1  0  0  0
 20 21  2  0  0  0
 21 16  1  0  0  0
 11  1  1  0  0  0
  9  2  1  0  0  0
 13  3  1  0  0  0
  8  4  1  0  0  0
 13  6  1  0  0  0
 10  7  1  0  0  0
 12 14  1  0  0  0
M  END
> <minimizedAffinity>
-8.38787

> <CNNscore>
0.2840420306

> <CNNaffinity>
5.5097603798

> <CNN_VS>
1.5650035143

> <CNNaffinity_variance>
0.0435539857

$$$$
[H]OC12N(C([H])([H])c3c([H])c([H])c(OC([H])([H])[H])c([H])c3[H])C3([H])C4([H])C5([H])C([H])([H])C([H])(C14[H])C1([H])C2([H])C3([H])C51[H]


 23 29  0  0  0  0  0  0  0  0999 V2000
  -89.0065   30.4379   -0.5462 N   0  0  0  0  0  0  0  0  0  0  0  0
  -89.8194   31.3473   -1.3425 C   0  0  0  0  0  0  0  0  0  0  0  0
  -89.0869   32.6413   -1.0625 C   0  0  0  0  0  0  0  0  0  0  0  0
  -89.1732   33.4119   -2.3478 C   0  0  0  0  0  0  0  0  0  0  0  0
  -87.7907   34.0751   -2.3648 C   0  0  0  0  0  0  0  0  0  0  0  0
  -86.9894   32.7787   -2.1754 C   0  0  0  0  0  0  0  0  0  0  0  0
  -87.5409   31.9268   -3.2733 C   0  0  0  0  0  0  0  0  0  0  0  0
  -89.0104   32.3574   -3.3884 C   0  0  0  0  0  0  0  0  0  0  0  0
  -89.4474   31.0676   -2.7633 C   0  0  0  0  0  0  0  0  0  0  0  0
  -87.9801   30.6446   -2.6605 C   0  0  0  0  0  0  0  0  0  0  0  0
  -87.7361   30.7073   -1.1743 C   0  0  0  0  0  0  0  0  0  0  0  0
  -86.6673   30.0201   -0.7267 O   0  0  0  0  0  0  0  0  0  0  0  0
  -87.6357   32.2158   -0.9556 C   0  0  0  0  0  0  0  0  0  0  0  0
  -86.0859   29.7314   -1.4723 H   0  0  0  0  0  0  0  0  0  0  0  0
  -89.4570   29.0872   -0.6154 C   0  0  0  0  0  0  0  0  0  0  0  0
  -90.4293   27.7345    3.3620 C   0  0  0  0  0  0  0  0  0  0  0  0
  -91.2322   28.6339    2.6952 C   0  0  0  0  0  0  0  0  0  0  0  0
  -90.9213   29.0696    1.4258 C   0  0  0  0  0  0  0  0  0  0  0  0
  -89.7856   28.6256    0.7554 C   0  0  0  0  0  0  0  0  0  0  0  0
  -88.9869   27.7152    1.4493 C   0  0  0  0  0  0  0  0  0  0  0  0
  -89.3001   27.2813    2.7182 C   0  0  0  0  0  0  0  0  0  0  0  0
  -89.8762   26.4984    5.4068 C   0  0  0  0  0  0  0  0  0  0  0  0
  -90.7602   27.3020    4.6520 O   0  0  0  0  0  0  0  0  0  0  0  0
 22 23  1  0  0  0
 23 16  1  0  0  0
 16 17  2  0  0  0
 17 18  1  0  0  0
 18 19  2  0  0  0
 19 15  1  0  0  0
 15  1  1  0  0  0
  1  2  1  0  0  0
  2  3  1  0  0  0
  3  4  1  0  0  0
  4  5  1  0  0  0
  5  6  1  0  0  0
  6  7  1  0  0  0
  7  8  1  0  0  0
  8  9  1  0  0  0
  9 10  1  0  0  0
 10 11  1  0  0  0
 11 12  1  0  0  0
 11 13  1  0  0  0
 19 20  1  0  0  0
 20 21  2  0  0  0
 21 16  1  0  0  0
 11  1  1  0  0  0
  9  2  1  0  0  0
 13  3  1  0  0  0
  8  4  1  0  0  0
 13  6  1  0  0  0
 10  7  1  0  0  0
 12 14  1  0  0  0
M  END
> <minimizedAffinity>
-7.26584

> <CNNscore>
0.2623518109

> <CNNaffinity>
5.0873308182

> <CNN_VS>
1.3346704245

> <CNNaffinity_variance>
0.0793041289

$$$$
[H]OC12N(C([H])([H])c3c([H])c([H])c(OC([H])([H])[H])c([H])c3[H])C3([H])C4([H])C5([H])C([H])([H])C([H])(C14[H])C1([H])C2([H])C3([H])C51[H]


 23 29  0  0  0  0  0  0  0  0999 V2000
  -89.9574   29.6650   -0.3372 N   0  0  0  0  0  0  0  0  0  0  0  0
  -90.5428   30.5342   -1.3489 C   0  0  0  0  0  0  0  0  0  0  0  0
  -89.7491   31.7939   -1.0801 C   0  0  0  0  0  0  0  0  0  0  0  0
  -89.5542   32.4154   -2.4326 C   0  0  0  0  0  0  0  0  0  0  0  0
  -88.1320   32.9679   -2.2796 C   0  0  0  0  0  0  0  0  0  0  0  0
  -87.4953   31.6461   -1.8254 C   0  0  0  0  0  0  0  0  0  0  0  0
  -87.9378   30.7165   -2.9095 C   0  0  0  0  0  0  0  0  0  0  0  0
  -89.3229   31.2387   -3.3176 C   0  0  0  0  0  0  0  0  0  0  0  0
  -89.9728   30.0656   -2.6493 C   0  0  0  0  0  0  0  0  0  0  0  0
  -88.5871   29.5497   -2.2543 C   0  0  0  0  0  0  0  0  0  0  0  0
  -88.5826   29.7651   -0.7624 C   0  0  0  0  0  0  0  0  0  0  0  0
  -87.6686   29.0569   -0.0710 O   0  0  0  0  0  0  0  0  0  0  0  0
  -88.3801   31.2772   -0.6837 C   0  0  0  0  0  0  0  0  0  0  0  0
  -87.0033   28.6418   -0.6729 H   0  0  0  0  0  0  0  0  0  0  0  0
  -90.5136   28.3524   -0.3454 C   0  0  0  0  0  0  0  0  0  0  0  0
  -90.6705   26.8887    3.7077 C   0  0  0  0  0  0  0  0  0  0  0  0
  -90.9296   28.2092    3.4128 C   0  0  0  0  0  0  0  0  0  0  0  0
  -90.8767   28.6792    2.1188 C   0  0  0  0  0  0  0  0  0  0  0  0
  -90.5602   27.8479    1.0487 C   0  0  0  0  0  0  0  0  0  0  0  0
  -90.3015   26.5145    1.3704 C   0  0  0  0  0  0  0  0  0  0  0  0
  -90.3551   26.0474    2.6648 C   0  0  0  0  0  0  0  0  0  0  0  0
  -89.7977   26.8605    5.9997 C   0  0  0  0  0  0  0  0  0  0  0  0
  -90.7287   26.4276    5.0286 O   0  0  0  0  0  0  0  0  0  0  0  0
 22 23  1  0  0  0
 23 16  1  0  0  0
 16 17  2  0  0  0
 17 18  1  0  0  0
 18 19  2  0  0  0
 19 15  1  0  0  0
 15  1  1  0  0  0
  1  2  1  0  0  0
  2  3  1  0  0  0
  3  4  1  0  0  0
  4  5  1  0  0  0
  5  6  1  0  0  0
  6  7  1  0  0  0
  7  8  1  0  0  0
  8  9  1  0  0  0
  9 10  1  0  0  0
 10 11  1  0  0  0
 11 12  1  0  0  0
 11 13  1  0  0  0
 19 20  1  0  0  0
 20 21  2  0  0  0
 21 16  1  0  0  0
 11  1  1  0  0  0
  9  2  1  0  0  0
 13  3  1  0  0  0
  8  4  1  0  0  0
 13  6  1  0  0  0
 10  7  1  0  0  0
 12 14  1  0  0  0
M  END
> <minimizedAffinity>
-6.69903

> <CNNscore>
0.2586518824

> <CNNaffinity>
5.0327825546

> <CNN_VS>
1.3017387390

> <CNNaffinity_variance>
0.0701653883

$$$$
[H]OC12N(C([H])([H])c3c([H])c([H])c(OC([H])([H])[H])c([H])c3[H])C3([H])C4([H])C5([H])C([H])([H])C([H])(C14[H])C1([H])C2([H])C3([H])C51[H]


 23 29  0  0  0  0  0  0  0  0999 V2000
  -85.9922   31.0232   -0.3645 N   0  0  0  0  0  0  0  0  0  0  0  0
  -86.0015   29.9124    0.5779 C   0  0  0  0  0  0  0  0  0  0  0  0
  -84.5711   29.4448    0.4210 C   0  0  0  0  0  0  0  0  0  0  0  0
  -84.1677   28.9904    1.7937 C   0  0  0  0  0  0  0  0  0  0  0  0
  -82.7075   29.4577    1.8206 C   0  0  0  0  0  0  0  0  0  0  0  0
  -82.9990   30.9149    1.4329 C   0  0  0  0  0  0  0  0  0  0  0  0
  -84.0336   31.2891    2.4453 C   0  0  0  0  0  0  0  0  0  0  0  0
  -84.8169   29.9908    2.6876 C   0  0  0  0  0  0  0  0  0  0  0  0
  -85.9870   30.5444    1.9328 C   0  0  0  0  0  0  0  0  0  0  0  0
  -85.2006   31.8373    1.7036 C   0  0  0  0  0  0  0  0  0  0  0  0
  -84.9109   31.7737    0.2257 C   0  0  0  0  0  0  0  0  0  0  0  0
  -84.5794   32.9423   -0.3571 O   0  0  0  0  0  0  0  0  0  0  0  0
  -83.7980   30.7279    0.1883 C   0  0  0  0  0  0  0  0  0  0  0  0
  -84.3870   33.6396    0.3168 H   0  0  0  0  0  0  0  0  0  0  0  0
  -87.2459   31.6978   -0.4380 C   0  0  0  0  0  0  0  0  0  0  0  0
  -90.0191   29.1851   -2.5805 C   0  0  0  0  0  0  0  0  0  0  0  0
  -88.7766   29.4824   -3.0961 C   0  0  0  0  0  0  0  0  0  0  0  0
  -87.8907   30.2876   -2.4144 C   0  0  0  0  0  0  0  0  0  0  0  0
  -88.2042   30.8394   -1.1761 C   0  0  0  0  0  0  0  0  0  0  0  0
  -89.4677   30.5252   -0.6728 C   0  0  0  0  0  0  0  0  0  0  0  0
  -90.3513   29.7199   -1.3563 C   0  0  0  0  0  0  0  0  0  0  0  0
  -91.0388   26.9909   -2.9822 C   0  0  0  0  0  0  0  0  0  0  0  0
  -90.9073   28.3647   -3.2867 O   0  0  0  0  0  0  0  0  0  0  0  0
 22 23  1  0  0  0
 23 16  1  0  0  0
 16 17  2  0  0  0
 17 18  1  0  0  0
 18 19  2  0  0  0
 19 15  1  0  0  0
 15  1  1  0  0  0
  1  2  1  0  0  0
  2  3  1  0  0  0
  3  4  1  0  0  0
  4  5  1  0  0  0
  5  6  1  0  0  0
  6  7  1  0  0  0
  7  8  1  0  0  0
  8  9  1  0  0  0
  9 10  1  0  0  0
 10 11  1  0  0  0
 11 12  1  0  0  0
 11 13  1  0  0  0
 19 20  1  0  0  0
 20 21  2  0  0  0
 21 16  1  0  0  0
 11  1  1  0  0  0
  9  2  1  0  0  0
 13  3  1  0  0  0
  8  4  1  0  0  0
 13  6  1  0  0  0
 10  7  1  0  0  0
 12 14  1  0  0  0
M  END
> <minimizedAffinity>
-8.12300

> <CNNscore>
0.2361819446

> <CNNaffinity>
5.5437483788

> <CNN_VS>
1.3093333244

> <CNNaffinity_variance>
0.0823545679

$$$$
[H]OC12N(C([H])([H])c3c([H])c([H])c(OC([H])([H])[H])c([H])c3[H])C3([H])C4([H])C5([H])C([H])([H])C([H])(C14[H])C1([H])C2([H])C3([H])C51[H]


 23 29  0  0  0  0  0  0  0  0999 V2000
  -86.4279   29.5727    0.0028 N   0  0  0  0  0  0  0  0  0  0  0  0
  -85.3375   30.5385   -0.0046 C   0  0  0  0  0  0  0  0  0  0  0  0
  -85.6632   31.2870    1.2694 C   0  0  0  0  0  0  0  0  0  0  0  0
  -84.3266   31.6405    1.8540 C   0  0  0  0  0  0  0  0  0  0  0  0
  -84.6233   31.4619    3.3478 C   0  0  0  0  0  0  0  0  0  0  0  0
  -85.1760   30.0337    3.2311 C   0  0  0  0  0  0  0  0  0  0  0  0
  -84.0714   29.3484    2.4925 C   0  0  0  0  0  0  0  0  0  0  0  0
  -83.5003   30.4335    1.5682 C   0  0  0  0  0  0  0  0  0  0  0  0
  -84.1196   29.7616    0.3806 C   0  0  0  0  0  0  0  0  0  0  0  0
  -84.6776   28.6808    1.3096 C   0  0  0  0  0  0  0  0  0  0  0  0
  -86.1554   28.9773    1.2882 C   0  0  0  0  0  0  0  0  0  0  0  0
  -86.9601   27.9732    1.6874 O   0  0  0  0  0  0  0  0  0  0  0  0
  -86.2209   30.2136    2.1831 C   0  0  0  0  0  0  0  0  0  0  0  0
  -86.4455   27.2493    2.1214 H   0  0  0  0  0  0  0  0  0  0  0  0
  -86.3887   28.6843   -1.1115 C   0  0  0  0  0  0  0  0  0  0  0  0
  -90.2517   28.6799   -3.0275 C   0  0  0  0  0  0  0  0  0  0  0  0
  -89.4595   29.8069   -3.0159 C   0  0  0  0  0  0  0  0  0  0  0  0
  -88.2265   29.8110   -2.4014 C   0  0  0  0  0  0  0  0  0  0  0  0
  -87.7207   28.6823   -1.7639 C   0  0  0  0  0  0  0  0  0  0  0  0
  -88.5398   27.5522   -1.7878 C   0  0  0  0  0  0  0  0  0  0  0  0
  -89.7719   27.5509   -2.4030 C   0  0  0  0  0  0  0  0  0  0  0  0
  -92.3370   27.5526   -3.6570 C   0  0  0  0  0  0  0  0  0  0  0  0
  -91.5025   28.6931   -3.6569 O   0  0  0  0  0  0  0  0  0  0  0  0
 22 23  1  0  0  0
 23 16  1  0  0  0
 16 17  2  0  0  0
 17 18  1  0  0  0
 18 19  2  0  0  0
 19 15  1  0  0  0
 15  1  1  0  0  0
  1  2  1  0  0  0
  2  3  1  0  0  0
  3  4  1  0  0  0
  4  5  1  0  0  0
  5  6  1  0  0  0
  6  7  1  0  0  0
  7  8  1  0  0  0
  8  9  1  0  0  0
  9 10  1  0  0  0
 10 11  1  0  0  0
 11 12  1  0  0  0
 11 13  1  0  0  0
 19 20  1  0  0  0
 20 21  2  0  0  0
 21 16  1  0  0  0
 11  1  1  0  0  0
  9  2  1  0  0  0
 13  3  1  0  0  0
  8  4  1  0  0  0
 13  6  1  0  0  0
 10  7  1  0  0  0
 12 14  1  0  0  0
M  END
> <minimizedAffinity>
-6.85843

> <CNNscore>
0.2240237296

> <CNNaffinity>
5.5113801956

> <CNN_VS>
1.2346799374

> <CNNaffinity_variance>
0.1559019983

$$$$
[H]OC12N(C([H])([H])c3c([H])c([H])c(OC([H])([H])[H])c([H])c3[H])C3([H])C4([H])C5([H])C([H])([H])C([H])(C14[H])C1([H])C2([H])C3([H])C51[H]


 23 29  0  0  0  0  0  0  0  0999 V2000
  -87.2893   32.1603   -1.4520 N   0  0  0  0  0  0  0  0  0  0  0  0
  -86.9540   32.2447   -2.8671 C   0  0  0  0  0  0  0  0  0  0  0  0
  -88.0064   31.3119   -3.4253 C   0  0  0  0  0  0  0  0  0  0  0  0
  -88.3847   31.9144   -4.7472 C   0  0  0  0  0  0  0  0  0  0  0  0
  -89.8898   31.6213   -4.7629 C   0  0  0  0  0  0  0  0  0  0  0  0
  -90.1899   32.2543   -3.3961 C   0  0  0  0  0  0  0  0  0  0  0  0
  -89.5828   33.6109   -3.5585 C   0  0  0  0  0  0  0  0  0  0  0  0
  -88.3694   33.3788   -4.4705 C   0  0  0  0  0  0  0  0  0  0  0  0
  -87.4450   33.5859   -3.3095 C   0  0  0  0  0  0  0  0  0  0  0  0
  -88.6608   33.8234   -2.4108 C   0  0  0  0  0  0  0  0  0  0  0  0
  -88.6640   32.5867   -1.5491 C   0  0  0  0  0  0  0  0  0  0  0  0
  -89.3667   32.6730   -0.4029 O   0  0  0  0  0  0  0  0  0  0  0  0
  -89.2057   31.5467   -2.5283 C   0  0  0  0  0  0  0  0  0  0  0  0
  -89.9390   33.4790   -0.3906 H   0  0  0  0  0  0  0  0  0  0  0  0
  -86.4470   32.9687   -0.6339 C   0  0  0  0  0  0  0  0  0  0  0  0
  -83.4761   30.4289    1.1877 C   0  0  0  0  0  0  0  0  0  0  0  0
  -84.8124   30.0942    1.2052 C   0  0  0  0  0  0  0  0  0  0  0  0
  -85.7632   30.9061    0.6266 C   0  0  0  0  0  0  0  0  0  0  0  0
  -85.4240   32.1002   -0.0020 C   0  0  0  0  0  0  0  0  0  0  0  0
  -84.0651   32.4195   -0.0080 C   0  0  0  0  0  0  0  0  0  0  0  0
  -83.1168   31.6060    0.5711 C   0  0  0  0  0  0  0  0  0  0  0  0
  -82.8912   28.3633    2.3736 C   0  0  0  0  0  0  0  0  0  0  0  0
  -82.5228   29.5920    1.7806 O   0  0  0  0  0  0  0  0  0  0  0  0
 22 23  1  0  0  0
 23 16  1  0  0  0
 16 17  2  0  0  0
 17 18  1  0  0  0
 18 19  2  0  0  0
 19 15  1  0  0  0
 15  1  1  0  0  0
  1  2  1  0  0  0
  2  3  1  0  0  0
  3  4  1  0  0  0
  4  5  1  0  0  0
  5  6  1  0  0  0
  6  7  1  0  0  0
  7  8  1  0  0  0
  8  9  1  0  0  0
  9 10  1  0  0  0
 10 11  1  0  0  0
 11 12  1  0  0  0
 11 13  1  0  0  0
 19 20  1  0  0  0
 20 21  2  0  0  0
 21 16  1  0  0  0
 11  1  1  0  0  0
  9  2  1  0  0  0
 13  3  1  0  0  0
  8  4  1  0  0  0
 13  6  1  0  0  0
 10  7  1  0  0  0
 12 14  1  0  0  0
M  END
> <minimizedAffinity>
-8.05620

> <CNNscore>
0.2201025039

> <CNNaffinity>
5.1452760696

> <CNN_VS>
1.1324881315

> <CNNaffinity_variance>
0.1548417658

$$$$
[H]OC12N(C([H])([H])c3c([H])c([H])c(OC([H])([H])[H])c([H])c3[H])C3([H])C4([H])C5([H])C([H])([H])C([H])(C14[H])C1([H])C2([H])C3([H])C51[H]


 23 29  0  0  0  0  0  0  0  0999 V2000
  -90.1764   28.5090   -0.0865 N   0  0  0  0  0  0  0  0  0  0  0  0
  -89.0600   29.4360    0.0414 C   0  0  0  0  0  0  0  0  0  0  0  0
  -88.2943   29.0733   -1.2122 C   0  0  0  0  0  0  0  0  0  0  0  0
  -87.7100   30.3713   -1.6887 C   0  0  0  0  0  0  0  0  0  0  0  0
  -87.8418   30.1923   -3.2059 C   0  0  0  0  0  0  0  0  0  0  0  0
  -89.3411   29.8595   -3.1978 C   0  0  0  0  0  0  0  0  0  0  0  0
  -89.8957   31.0117   -2.4231 C   0  0  0  0  0  0  0  0  0  0  0  0
  -88.7942   31.3552   -1.4098 C   0  0  0  0  0  0  0  0  0  0  0  0
  -89.6210   30.7789   -0.3010 C   0  0  0  0  0  0  0  0  0  0  0  0
  -90.7160   30.4480   -1.3178 C   0  0  0  0  0  0  0  0  0  0  0  0
  -90.6465   28.9435   -1.3793 C   0  0  0  0  0  0  0  0  0  0  0  0
  -91.7343   28.3268   -1.8806 O   0  0  0  0  0  0  0  0  0  0  0  0
  -89.3829   28.7407   -2.2135 C   0  0  0  0  0  0  0  0  0  0  0  0
  -92.3457   28.9706   -2.3154 H   0  0  0  0  0  0  0  0  0  0  0  0
  -91.1136   28.6198    0.9820 C   0  0  0  0  0  0  0  0  0  0  0  0
  -89.7610   26.1428    4.2422 C   0  0  0  0  0  0  0  0  0  0  0  0
  -89.6375   25.7331    2.9327 C   0  0  0  0  0  0  0  0  0  0  0  0
  -90.0721   26.5218    1.8901 C   0  0  0  0  0  0  0  0  0  0  0  0
  -90.6554   27.7667    2.1055 C   0  0  0  0  0  0  0  0  0  0  0  0
  -90.7705   28.1615    3.4394 C   0  0  0  0  0  0  0  0  0  0  0  0
  -90.3351   27.3711    4.4796 C   0  0  0  0  0  0  0  0  0  0  0  0
  -88.5249   24.1820    5.0442 C   0  0  0  0  0  0  0  0  0  0  0  0
  -89.3138   25.3286    5.2900 O   0  0  0  0  0  0  0  0  0  0  0  0
 22 23  1  0  0  0
 23 16  1  0  0  0
 16 17  2  0  0  0
 17 18  1  0  0  0
 18 19  2  0  0  0
 19 15  1  0  0  0
 15  1  1  0  0  0
  1  2  1  0  0  0
  2  3  1  0  0  0
  3  4  1  0  0  0
  4  5  1  0  0  0
  5  6  1  0  0  0
  6  7  1  0  0  0
  7  8  1  0  0  0
  8  9  1  0  0  0
  9 10  1  0  0  0
 10 11  1  0  0  0
 11 12  1  0  0  0
 11 13  1  0  0  0
 19 20  1  0  0  0
 20 21  2  0  0  0
 21 16  1  0  0  0
 11  1  1  0  0  0
  9  2  1  0  0  0
 13  3  1  0  0  0
  8  4  1  0  0  0
 13  6  1  0  0  0
 10  7  1  0  0  0
 12 14  1  0  0  0
M  END
> <minimizedAffinity>
-6.13837

> <CNNscore>
0.1845423877

> <CNNaffinity>
4.8916206360

> <CNN_VS>
0.9027113318

> <CNNaffinity_variance>
0.0505702980

$$$$
[H]OC12N(C([H])([H])c3c([H])c([H])c(OC([H])([H])[H])c([H])c3[H])C3([H])C4([H])C5([H])C([H])([H])C([H])(C14[H])C1([H])C2([H])C3([H])C51[H]


 23 29  0  0  0  0  0  0  0  0999 V2000
  -87.2970   31.9955   -1.8831 N   0  0  0  0  0  0  0  0  0  0  0  0
  -87.5769   33.4246   -1.8470 C   0  0  0  0  0  0  0  0  0  0  0  0
  -87.1175   33.8005   -3.2387 C   0  0  0  0  0  0  0  0  0  0  0  0
  -88.0645   34.8816   -3.6718 C   0  0  0  0  0  0  0  0  0  0  0  0
  -88.2188   34.5341   -5.1573 C   0  0  0  0  0  0  0  0  0  0  0  0
  -88.6107   33.0654   -4.9378 C   0  0  0  0  0  0  0  0  0  0  0  0
  -89.7431   33.2026   -3.9714 C   0  0  0  0  0  0  0  0  0  0  0  0
  -89.3735   34.4276   -3.1224 C   0  0  0  0  0  0  0  0  0  0  0  0
  -89.0636   33.5383   -1.9568 C   0  0  0  0  0  0  0  0  0  0  0  0
  -89.4419   32.3247   -2.8090 C   0  0  0  0  0  0  0  0  0  0  0  0
  -88.1049   31.6651   -3.0316 C   0  0  0  0  0  0  0  0  0  0  0  0
  -88.1449   30.3721   -3.4077 O   0  0  0  0  0  0  0  0  0  0  0  0
  -87.4889   32.5931   -4.0770 C   0  0  0  0  0  0  0  0  0  0  0  0
  -89.0587   30.1009   -3.6701 H   0  0  0  0  0  0  0  0  0  0  0  0
  -87.6449   31.3320   -0.6702 C   0  0  0  0  0  0  0  0  0  0  0  0
  -84.0320   30.0355    1.2946 C   0  0  0  0  0  0  0  0  0  0  0  0
  -84.2846   31.3709    1.0687 C   0  0  0  0  0  0  0  0  0  0  0  0
  -85.4368   31.7866    0.4382 C   0  0  0  0  0  0  0  0  0  0  0  0
  -86.3998   30.8831   -0.0008 C   0  0  0  0  0  0  0  0  0  0  0  0
  -86.1234   29.5359    0.2384 C   0  0  0  0  0  0  0  0  0  0  0  0
  -84.9708   29.1232    0.8689 C   0  0  0  0  0  0  0  0  0  0  0  0
  -82.6790   28.2982    2.3747 C   0  0  0  0  0  0  0  0  0  0  0  0
  -82.8556   29.6303    1.9370 O   0  0  0  0  0  0  0  0  0  0  0  0
 22 23  1  0  0  0
 23 16  1  0  0  0
 16 17  2  0  0  0
 17 18  1  0  0  0
 18 19  2  0  0  0
 19 15  1  0  0  0
 15  1  1  0  0  0
  1  2  1  0  0  0
  2  3  1  0  0  0
  3  4  1  0  0  0
  4  5  1  0  0  0
  5  6  1  0  0  0
  6  7  1  0  0  0
  7  8  1  0  0  0
  8  9  1  0  0  0
  9 10  1  0  0  0
 10 11  1  0  0  0
 11 12  1  0  0  0
 11 13  1  0  0  0
 19 20  1  0  0  0
 20 21  2  0  0  0
 21 16  1  0  0  0
 11  1  1  0  0  0
  9  2  1  0  0  0
 13  3  1  0  0  0
  8  4  1  0  0  0
 13  6  1  0  0  0
 10  7  1  0  0  0
 12 14  1  0  0  0
M  END
> <minimizedAffinity>
-7.98709

> <CNNscore>
0.1691730022

> <CNNaffinity>
5.1867842674

> <CNN_VS>
0.8774638772

> <CNNaffinity_variance>
0.0750619918

$$$$
[H]c1nc(N2C([H])([H])C([H])([H])N(C([H])([H])C([H])([H])C([H])([H])Sc3c([H])c([H])c(F)c([H])c3[H])C([H])([H])C2([H])[H])c([H])c([H])c1[H]


 23 25  0  0  0  0  0  0  0  0999 V2000
  -88.2971   27.3928   -0.2679 N   0  0  0  0  0  0  0  0  0  0  0  0
  -88.6434   28.7107    0.2042 C   0  0  0  0  0  0  0  0  0  0  0  0
  -87.9627   29.8444   -0.5121 C   0  0  0  0  0  0  0  0  0  0  0  0
  -87.9485   29.6946   -1.9338 N   0  0  0  0  0  0  0  0  0  0  0  0
  -87.9293   28.3673   -2.4916 C   0  0  0  0  0  0  0  0  0  0  0  0
  -87.4464   27.4245   -1.4303 C   0  0  0  0  0  0  0  0  0  0  0  0
  -87.9506   30.8497   -2.7592 C   0  0  0  0  0  0  0  0  0  0  0  0
  -88.3802   30.8301   -4.0661 C   0  0  0  0  0  0  0  0  0  0  0  0
  -88.3627   31.9779   -4.8619 C   0  0  0  0  0  0  0  0  0  0  0  0
  -87.9105   33.1598   -4.3446 C   0  0  0  0  0  0  0  0  0  0  0  0
  -87.4867   33.1557   -3.0367 C   0  0  0  0  0  0  0  0  0  0  0  0
  -87.5095   32.0462   -2.2864 N   0  0  0  0  0  0  0  0  0  0  0  0
  -87.7466   26.5732    0.7897 C   0  0  0  0  0  0  0  0  0  0  0  0
  -87.1989   27.4626    1.8747 C   0  0  0  0  0  0  0  0  0  0  0  0
  -85.6741   27.3890    1.8080 C   0  0  0  0  0  0  0  0  0  0  0  0
  -84.9615   28.7149    2.8143 S   0  0  0  0  0  0  0  0  0  0  0  0
  -83.0093   33.2034   -0.5759 F   0  0  0  0  0  0  0  0  0  0  0  0
  -83.4339   32.1697    0.1995 C   0  0  0  0  0  0  0  0  0  0  0  0
  -84.7664   32.1029    0.5842 C   0  0  0  0  0  0  0  0  0  0  0  0
  -85.2232   31.0722    1.3658 C   0  0  0  0  0  0  0  0  0  0  0  0
  -84.3875   30.0656    1.8007 C   0  0  0  0  0  0  0  0  0  0  0  0
  -83.0661   30.1433    1.4119 C   0  0  0  0  0  0  0  0  0  0  0  0
  -82.5853   31.1737    0.6242 C   0  0  0  0  0  0  0  0  0  0  0  0
 17 18  1  0  0  0
 18 19  2  0  0  0
 19 20  1  0  0  0
 20 21  2  0  0  0
 21 16  1  0  0  0
 16 15  1  0  0  0
 15 14  1  0  0  0
 14 13  1  0  0  0
 13  1  1  0  0  0
  1  2  1  0  0  0
  2  3  1  0  0  0
  3  4  1  0  0  0
  4  7  1  0  0  0
  7  8  2  0  0  0
  8  9  1  0  0  0
  9 10  2  0  0  0
 10 11  1  0  0  0
 11 12  2  0  0  0
  4  5  1  0  0  0
  5  6  1  0  0  0
 21 22  1  0  0  0
 22 23  2  0  0  0
 23 18  1  0  0  0
  6  1  1  0  0  0
 12  7  1  0  0  0
M  END
> <minimizedAffinity>
-7.44352

> <CNNscore>
0.4248188734

> <CNNaffinity>
5.9510717392

> <CNN_VS>
2.5281276703

> <CNNaffinity_variance>
0.6912145019

$$$$
[H]c1nc(N2C([H])([H])C([H])([H])N(C([H])([H])C([H])([H])C([H])([H])Sc3c([H])c([H])c(F)c([H])c3[H])C([H])([H])C2([H])[H])c([H])c([H])c1[H]


 23 25  0  0  0  0  0  0  0  0999 V2000
  -88.8261   29.0998   -2.1233 N   0  0  0  0  0  0  0  0  0  0  0  0
  -88.5899   30.4317   -1.6233 C   0  0  0  0  0  0  0  0  0  0  0  0
  -87.7340   30.5073   -0.3890 C   0  0  0  0  0  0  0  0  0  0  0  0
  -86.5787   29.6669   -0.4432 N   0  0  0  0  0  0  0  0  0  0  0  0
  -86.6414   28.4497   -1.2101 C   0  0  0  0  0  0  0  0  0  0  0  0
  -88.0857   28.0959   -1.4024 C   0  0  0  0  0  0  0  0  0  0  0  0
  -85.4039   30.0463    0.2575 C   0  0  0  0  0  0  0  0  0  0  0  0
  -84.6723   29.1630    1.0176 C   0  0  0  0  0  0  0  0  0  0  0  0
  -83.5251   29.5627    1.7069 C   0  0  0  0  0  0  0  0  0  0  0  0
  -83.1040   30.8613    1.6353 C   0  0  0  0  0  0  0  0  0  0  0  0
  -83.8503   31.7260    0.8698 C   0  0  0  0  0  0  0  0  0  0  0  0
  -84.9485   31.3270    0.2147 N   0  0  0  0  0  0  0  0  0  0  0  0
  -90.2391   28.7955   -2.1879 C   0  0  0  0  0  0  0  0  0  0  0  0
  -90.5277   27.5885   -1.3345 C   0  0  0  0  0  0  0  0  0  0  0  0
  -91.6580   27.9593   -0.3754 C   0  0  0  0  0  0  0  0  0  0  0  0
  -90.9790   28.8717    1.0335 S   0  0  0  0  0  0  0  0  0  0  0  0
  -89.1579   25.1689    5.3258 F   0  0  0  0  0  0  0  0  0  0  0  0
  -89.5628   26.0021    4.3298 C   0  0  0  0  0  0  0  0  0  0  0  0
  -90.3942   27.0737    4.6272 C   0  0  0  0  0  0  0  0  0  0  0  0
  -90.8183   27.9304    3.6434 C   0  0  0  0  0  0  0  0  0  0  0  0
  -90.4419   27.7676    2.3272 C   0  0  0  0  0  0  0  0  0  0  0  0
  -89.6159   26.6993    2.0445 C   0  0  0  0  0  0  0  0  0  0  0  0
  -89.1768   25.8239    3.0214 C   0  0  0  0  0  0  0  0  0  0  0  0
 17 18  1  0  0  0
 18 19  2  0  0  0
 19 20  1  0  0  0
 20 21  2  0  0  0
 21 16  1  0  0  0
 16 15  1  0  0  0
 15 14  1  0  0  0
 14 13  1  0  0  0
 13  1  1  0  0  0
  1  2  1  0  0  0
  2  3  1  0  0  0
  3  4  1  0  0  0
  4  7  1  0  0  0
  7  8  2  0  0  0
  8  9  1  0  0  0
  9 10  2  0  0  0
 10 11  1  0  0  0
 11 12  2  0  0  0
  4  5  1  0  0  0
  5  6  1  0  0  0
 21 22  1  0  0  0
 22 23  2  0  0  0
 23 18  1  0  0  0
  6  1  1  0  0  0
 12  7  1  0  0  0
M  END
> <minimizedAffinity>
-6.74876

> <CNNscore>
0.3876256943

> <CNNaffinity>
5.9721345901

> <CNN_VS>
2.3149528503

> <CNNaffinity_variance>
0.1110657305

$$$$
[H]c1nc(N2C([H])([H])C([H])([H])N(C([H])([H])C([H])([H])C([H])([H])Sc3c([H])c([H])c(F)c([H])c3[H])C([H])([H])C2([H])[H])c([H])c([H])c1[H]


 23 25  0  0  0  0  0  0  0  0999 V2000
  -88.4687   29.1362   -1.0594 N   0  0  0  0  0  0  0  0  0  0  0  0
  -87.6129   28.1131   -0.5111 C   0  0  0  0  0  0  0  0  0  0  0  0
  -87.6738   27.9642    0.9842 C   0  0  0  0  0  0  0  0  0  0  0  0
  -89.0047   27.9844    1.5060 N   0  0  0  0  0  0  0  0  0  0  0  0
  -90.0115   28.7430    0.8100 C   0  0  0  0  0  0  0  0  0  0  0  0
  -89.3170   29.7428   -0.0654 C   0  0  0  0  0  0  0  0  0  0  0  0
  -89.3023   27.2635    2.6922 C   0  0  0  0  0  0  0  0  0  0  0  0
  -89.9662   27.8255    3.7582 C   0  0  0  0  0  0  0  0  0  0  0  0
  -90.2383   27.0987    4.9195 C   0  0  0  0  0  0  0  0  0  0  0  0
  -89.8419   25.7939    5.0161 C   0  0  0  0  0  0  0  0  0  0  0  0
  -89.1805   25.2533    3.9388 C   0  0  0  0  0  0  0  0  0  0  0  0
  -88.9270   25.9638    2.8318 N   0  0  0  0  0  0  0  0  0  0  0  0
  -87.7156   30.1187   -1.8083 C   0  0  0  0  0  0  0  0  0  0  0  0
  -87.9769   31.4874   -1.2368 C   0  0  0  0  0  0  0  0  0  0  0  0
  -86.9172   32.4339   -1.7992 C   0  0  0  0  0  0  0  0  0  0  0  0
  -85.9898   33.1803   -0.4349 S   0  0  0  0  0  0  0  0  0  0  0  0
  -82.2282   29.2904    2.0489 F   0  0  0  0  0  0  0  0  0  0  0  0
  -83.0699   30.1892    1.4711 C   0  0  0  0  0  0  0  0  0  0  0  0
  -84.4380   30.0823    1.6826 C   0  0  0  0  0  0  0  0  0  0  0  0
  -85.3107   30.9744    1.1130 C   0  0  0  0  0  0  0  0  0  0  0  0
  -84.8728   32.0077    0.3122 C   0  0  0  0  0  0  0  0  0  0  0  0
  -83.5114   32.1032    0.1098 C   0  0  0  0  0  0  0  0  0  0  0  0
  -82.6146   31.2145    0.6747 C   0  0  0  0  0  0  0  0  0  0  0  0
 17 18  1  0  0  0
 18 19  2  0  0  0
 19 20  1  0  0  0
 20 21  2  0  0  0
 21 16  1  0  0  0
 16 15  1  0  0  0
 15 14  1  0  0  0
 14 13  1  0  0  0
 13  1  1  0  0  0
  1  2  1  0  0  0
  2  3  1  0  0  0
  3  4  1  0  0  0
  4  7  1  0  0  0
  7  8  2  0  0  0
  8  9  1  0  0  0
  9 10  2  0  0  0
 10 11  1  0  0  0
 11 12  2  0  0  0
  4  5  1  0  0  0
  5  6  1  0  0  0
 21 22  1  0  0  0
 22 23  2  0  0  0
 23 18  1  0  0  0
  6  1  1  0  0  0
 12  7  1  0  0  0
M  END
> <minimizedAffinity>
-7.88856

> <CNNscore>
0.3666176498

> <CNNaffinity>
5.8425707817

> <CNN_VS>
2.1419894695

> <CNNaffinity_variance>
0.4320352674

$$$$
[H]c1nc(N2C([H])([H])C([H])([H])N(C([H])([H])C([H])([H])C([H])([H])Sc3c([H])c([H])c(F)c([H])c3[H])C([H])([H])C2([H])[H])c([H])c([H])c1[H]


 23 25  0  0  0  0  0  0  0  0999 V2000
  -88.5817   28.4387    0.0731 N   0  0  0  0  0  0  0  0  0  0  0  0
  -87.4872   27.9729    0.8883 C   0  0  0  0  0  0  0  0  0  0  0  0
  -86.1260   28.4494    0.4617 C   0  0  0  0  0  0  0  0  0  0  0  0
  -86.0859   29.8397    0.1306 N   0  0  0  0  0  0  0  0  0  0  0  0
  -87.2719   30.4615   -0.3987 C   0  0  0  0  0  0  0  0  0  0  0  0
  -88.1635   29.3810   -0.9334 C   0  0  0  0  0  0  0  0  0  0  0  0
  -84.8853   30.5713    0.3266 C   0  0  0  0  0  0  0  0  0  0  0  0
  -83.8089   30.0644    1.0176 C   0  0  0  0  0  0  0  0  0  0  0  0
  -82.6416   30.8080    1.2067 C   0  0  0  0  0  0  0  0  0  0  0  0
  -82.5494   32.0737    0.6984 C   0  0  0  0  0  0  0  0  0  0  0  0
  -83.6369   32.5593    0.0113 C   0  0  0  0  0  0  0  0  0  0  0  0
  -84.7495   31.8335   -0.1613 N   0  0  0  0  0  0  0  0  0  0  0  0
  -89.3366   27.3392   -0.4878 C   0  0  0  0  0  0  0  0  0  0  0  0
  -88.5313   26.0719   -0.3711 C   0  0  0  0  0  0  0  0  0  0  0  0
  -89.4481   24.9918    0.2015 C   0  0  0  0  0  0  0  0  0  0  0  0
  -90.8937   25.7701    0.9652 S   0  0  0  0  0  0  0  0  0  0  0  0
  -89.7734   27.3202    6.6037 F   0  0  0  0  0  0  0  0  0  0  0  0
  -90.0264   26.9441    5.3212 C   0  0  0  0  0  0  0  0  0  0  0  0
  -90.3543   27.9068    4.3759 C   0  0  0  0  0  0  0  0  0  0  0  0
  -90.6143   27.5570    3.0752 C   0  0  0  0  0  0  0  0  0  0  0  0
  -90.5626   26.2460    2.6518 C   0  0  0  0  0  0  0  0  0  0  0  0
  -90.2359   25.2989    3.6004 C   0  0  0  0  0  0  0  0  0  0  0  0
  -89.9699   25.6304    4.9168 C   0  0  0  0  0  0  0  0  0  0  0  0
 17 18  1  0  0  0
 18 19  2  0  0  0
 19 20  1  0  0  0
 20 21  2  0  0  0
 21 16  1  0  0  0
 16 15  1  0  0  0
 15 14  1  0  0  0
 14 13  1  0  0  0
 13  1  1  0  0  0
  1  2  1  0  0  0
  2  3  1  0  0  0
  3  4  1  0  0  0
  4  7  1  0  0  0
  7  8  2  0  0  0
  8  9  1  0  0  0
  9 10  2  0  0  0
 10 11  1  0  0  0
 11 12  2  0  0  0
  4  5  1  0  0  0
  5  6  1  0  0  0
 21 22  1  0  0  0
 22 23  2  0  0  0
 23 18  1  0  0  0
  6  1  1  0  0  0
 12  7  1  0  0  0
M  END
> <minimizedAffinity>
-7.29849

> <CNNscore>
0.3659631312

> <CNNaffinity>
5.8505406380

> <CNN_VS>
2.1410822868

> <CNNaffinity_variance>
0.1745469123

$$$$
[H]c1nc(N2C([H])([H])C([H])([H])N(C([H])([H])C([H])([H])C([H])([H])Sc3c([H])c([H])c(F)c([H])c3[H])C([H])([H])C2([H])[H])c([H])c([H])c1[H]


 23 25  0  0  0  0  0  0  0  0999 V2000
  -87.7678   26.9109   -1.0045 N   0  0  0  0  0  0  0  0  0  0  0  0
  -87.3757   28.0255   -1.8313 C   0  0  0  0  0  0  0  0  0  0  0  0
  -86.9371   29.2531   -1.0814 C   0  0  0  0  0  0  0  0  0  0  0  0
  -86.0594   28.9711    0.0113 N   0  0  0  0  0  0  0  0  0  0  0  0
  -86.1836   27.7091    0.6934 C   0  0  0  0  0  0  0  0  0  0  0  0
  -87.5447   27.1536    0.3981 C   0  0  0  0  0  0  0  0  0  0  0  0
  -85.0929   29.9358    0.3995 C   0  0  0  0  0  0  0  0  0  0  0  0
  -83.9977   29.6236    1.1715 C   0  0  0  0  0  0  0  0  0  0  0  0
  -83.0657   30.5929    1.5497 C   0  0  0  0  0  0  0  0  0  0  0  0
  -83.2307   31.8901    1.1509 C   0  0  0  0  0  0  0  0  0  0  0  0
  -84.3320   32.1787    0.3800 C   0  0  0  0  0  0  0  0  0  0  0  0
  -85.2170   31.2376    0.0257 N   0  0  0  0  0  0  0  0  0  0  0  0
  -89.1262   26.4942   -1.2775 C   0  0  0  0  0  0  0  0  0  0  0  0
  -89.5011   25.3753   -0.3417 C   0  0  0  0  0  0  0  0  0  0  0  0
  -90.9608   25.5787    0.0619 C   0  0  0  0  0  0  0  0  0  0  0  0
  -91.1244   27.1370    0.9692 S   0  0  0  0  0  0  0  0  0  0  0  0
  -89.5748   26.5438    6.6873 F   0  0  0  0  0  0  0  0  0  0  0  0
  -89.9286   26.7021    5.3835 C   0  0  0  0  0  0  0  0  0  0  0  0
  -90.0731   25.5852    4.5714 C   0  0  0  0  0  0  0  0  0  0  0  0
  -90.4292   25.7142    3.2529 C   0  0  0  0  0  0  0  0  0  0  0  0
  -90.6573   26.9472    2.6799 C   0  0  0  0  0  0  0  0  0  0  0  0
  -90.5105   28.0491    3.4971 C   0  0  0  0  0  0  0  0  0  0  0  0
  -90.1524   27.9410    4.8288 C   0  0  0  0  0  0  0  0  0  0  0  0
 17 18  1  0  0  0
 18 19  2  0  0  0
 19 20  1  0  0  0
 20 21  2  0  0  0
 21 16  1  0  0  0
 16 15  1  0  0  0
 15 14  1  0  0  0
 14 13  1  0  0  0
 13  1  1  0  0  0
  1  2  1  0  0  0
  2  3  1  0  0  0
  3  4  1  0  0  0
  4  7  1  0  0  0
  7  8  2  0  0  0
  8  9  1  0  0  0
  9 10  2  0  0  0
 10 11  1  0  0  0
 11 12  2  0  0  0
  4  5  1  0  0  0
  5  6  1  0  0  0
 21 22  1  0  0  0
 22 23  2  0  0  0
 23 18  1  0  0  0
  6  1  1  0  0  0
 12  7  1  0  0  0
M  END
> <minimizedAffinity>
-7.32036

> <CNNscore>
0.3636837006

> <CNNaffinity>
5.7451143265

> <CNN_VS>
2.0894043446

> <CNNaffinity_variance>
0.2575371861

$$$$
[H]c1nc(N2C([H])([H])C([H])([H])N(C([H])([H])C([H])([H])C([H])([H])Sc3c([H])c([H])c(F)c([H])c3[H])C([H])([H])C2([H])[H])c([H])c([H])c1[H]


 23 25  0  0  0  0  0  0  0  0999 V2000
  -88.8792   31.2456   -2.4576 N   0  0  0  0  0  0  0  0  0  0  0  0
  -88.0515   30.0742   -2.6076 C   0  0  0  0  0  0  0  0  0  0  0  0
  -87.5423   29.4838   -1.3216 C   0  0  0  0  0  0  0  0  0  0  0  0
  -88.5389   29.3946   -0.3004 N   0  0  0  0  0  0  0  0  0  0  0  0
  -89.6034   30.3641   -0.2831 C   0  0  0  0  0  0  0  0  0  0  0  0
  -89.1597   31.5551   -1.0787 C   0  0  0  0  0  0  0  0  0  0  0  0
  -88.4565   28.3612    0.6694 C   0  0  0  0  0  0  0  0  0  0  0  0
  -87.2809   27.7112    0.9667 C   0  0  0  0  0  0  0  0  0  0  0  0
  -87.2271   26.6896    1.9178 C   0  0  0  0  0  0  0  0  0  0  0  0
  -88.3625   26.3135    2.5798 C   0  0  0  0  0  0  0  0  0  0  0  0
  -89.5253   26.9770    2.2667 C   0  0  0  0  0  0  0  0  0  0  0  0
  -89.5605   27.9548    1.3518 N   0  0  0  0  0  0  0  0  0  0  0  0
  -88.3355   32.3798   -3.1725 C   0  0  0  0  0  0  0  0  0  0  0  0
  -87.7967   33.3797   -2.1835 C   0  0  0  0  0  0  0  0  0  0  0  0
  -86.2766   33.2269   -2.1521 C   0  0  0  0  0  0  0  0  0  0  0  0
  -85.6569   33.6941   -0.5162 S   0  0  0  0  0  0  0  0  0  0  0  0
  -82.3720   29.3426    1.8764 F   0  0  0  0  0  0  0  0  0  0  0  0
  -83.1413   30.3268    1.3382 C   0  0  0  0  0  0  0  0  0  0  0  0
  -82.5367   31.3766    0.6597 C   0  0  0  0  0  0  0  0  0  0  0  0
  -83.2870   32.3830    0.1066 C   0  0  0  0  0  0  0  0  0  0  0  0
  -84.6625   32.3975    0.1986 C   0  0  0  0  0  0  0  0  0  0  0  0
  -85.2513   31.3491    0.8752 C   0  0  0  0  0  0  0  0  0  0  0  0
  -84.5133   30.3246    1.4400 C   0  0  0  0  0  0  0  0  0  0  0  0
 17 18  1  0  0  0
 18 19  2  0  0  0
 19 20  1  0  0  0
 20 21  2  0  0  0
 21 16  1  0  0  0
 16 15  1  0  0  0
 15 14  1  0  0  0
 14 13  1  0  0  0
 13  1  1  0  0  0
  1  2  1  0  0  0
  2  3  1  0  0  0
  3  4  1  0  0  0
  4  7  1  0  0  0
  7  8  2  0  0  0
  8  9  1  0  0  0
  9 10  2  0  0  0
 10 11  1  0  0  0
 11 12  2  0  0  0
  4  5  1  0  0  0
  5  6  1  0  0  0
 21 22  1  0  0  0
 22 23  2  0  0  0
 23 18  1  0  0  0
  6  1  1  0  0  0
 12  7  1  0  0  0
M  END
> <minimizedAffinity>
-7.54389

> <CNNscore>
0.3113778532

> <CNNaffinity>
5.8225884438

> <CNN_VS>
1.8130251169

> <CNNaffinity_variance>
0.4979082942

$$$$
[H]c1nc(N2C([H])([H])C([H])([H])N(C([H])([H])C([H])([H])C([H])([H])Sc3c([H])c([H])c(F)c([H])c3[H])C([H])([H])C2([H])[H])c([H])c([H])c1[H]


 23 25  0  0  0  0  0  0  0  0999 V2000
  -88.9050   27.3191   -0.5716 N   0  0  0  0  0  0  0  0  0  0  0  0
  -87.8221   27.6074   -1.4793 C   0  0  0  0  0  0  0  0  0  0  0  0
  -86.9134   28.7273   -1.0531 C   0  0  0  0  0  0  0  0  0  0  0  0
  -86.5476   28.6715    0.3279 N   0  0  0  0  0  0  0  0  0  0  0  0
  -87.4697   28.0872    1.2669 C   0  0  0  0  0  0  0  0  0  0  0  0
  -88.8331   28.0913    0.6427 C   0  0  0  0  0  0  0  0  0  0  0  0
  -85.2933   29.1922    0.7412 C   0  0  0  0  0  0  0  0  0  0  0  0
  -84.7143   30.2935    0.1538 C   0  0  0  0  0  0  0  0  0  0  0  0
  -83.4736   30.7810    0.5711 C   0  0  0  0  0  0  0  0  0  0  0  0
  -82.8038   30.1600    1.5883 C   0  0  0  0  0  0  0  0  0  0  0  0
  -83.4015   29.0619    2.1604 C   0  0  0  0  0  0  0  0  0  0  0  0
  -84.5921   28.6065    1.7486 N   0  0  0  0  0  0  0  0  0  0  0  0
  -90.1928   27.4393   -1.2200 C   0  0  0  0  0  0  0  0  0  0  0  0
  -90.6695   28.8644   -1.1196 C   0  0  0  0  0  0  0  0  0  0  0  0
  -90.7897   29.4135   -2.5405 C   0  0  0  0  0  0  0  0  0  0  0  0
  -90.8171   31.2232   -2.4877 S   0  0  0  0  0  0  0  0  0  0  0  0
  -85.4059   33.4575   -1.4030 F   0  0  0  0  0  0  0  0  0  0  0  0
  -86.6372   32.9466   -1.6732 C   0  0  0  0  0  0  0  0  0  0  0  0
  -87.5087   32.6682   -0.6287 C   0  0  0  0  0  0  0  0  0  0  0  0
  -88.7566   32.1526   -0.8710 C   0  0  0  0  0  0  0  0  0  0  0  0
  -89.1976   31.8899   -2.1505 C   0  0  0  0  0  0  0  0  0  0  0  0
  -88.3226   32.1708   -3.1795 C   0  0  0  0  0  0  0  0  0  0  0  0
  -87.0603   32.6909   -2.9570 C   0  0  0  0  0  0  0  0  0  0  0  0
 17 18  1  0  0  0
 18 19  2  0  0  0
 19 20  1  0  0  0
 20 21  2  0  0  0
 21 16  1  0  0  0
 16 15  1  0  0  0
 15 14  1  0  0  0
 14 13  1  0  0  0
 13  1  1  0  0  0
  1  2  1  0  0  0
  2  3  1  0  0  0
  3  4  1  0  0  0
  4  7  1  0  0  0
  7  8  2  0  0  0
  8  9  1  0  0  0
  9 10  2  0  0  0
 10 11  1  0  0  0
 11 12  2  0  0  0
  4  5  1  0  0  0
  5  6  1  0  0  0
 21 22  1  0  0  0
 22 23  2  0  0  0
 23 18  1  0  0  0
  6  1  1  0  0  0
 12  7  1  0  0  0
M  END
> <minimizedAffinity>
-6.80649

> <CNNscore>
0.2125036269

> <CNNaffinity>
5.7696852684

> <CNN_VS>
1.2260789871

> <CNNaffinity_variance>
0.2302648574

$$$$
[H]c1nc(N2C([H])([H])C([H])([H])N(C([H])([H])C([H])([H])C([H])([H])Sc3c([H])c([H])c(F)c([H])c3[H])C([H])([H])C2([H])[H])c([H])c([H])c1[H]


 23 25  0  0  0  0  0  0  0  0999 V2000
  -89.0753   31.7098   -3.6973 N   0  0  0  0  0  0  0  0  0  0  0  0
  -89.8928   32.7339   -3.0952 C   0  0  0  0  0  0  0  0  0  0  0  0
  -89.1728   34.0118   -2.7629 C   0  0  0  0  0  0  0  0  0  0  0  0
  -88.3038   34.4646   -3.8040 N   0  0  0  0  0  0  0  0  0  0  0  0
  -87.6920   33.4904   -4.6700 C   0  0  0  0  0  0  0  0  0  0  0  0
  -87.7360   32.1611   -3.9777 C   0  0  0  0  0  0  0  0  0  0  0  0
  -88.0622   35.8549   -3.9586 C   0  0  0  0  0  0  0  0  0  0  0  0
  -88.9374   36.8171   -3.5099 C   0  0  0  0  0  0  0  0  0  0  0  0
  -88.6826   38.1795   -3.6833 C   0  0  0  0  0  0  0  0  0  0  0  0
  -87.5388   38.5848   -4.3127 C   0  0  0  0  0  0  0  0  0  0  0  0
  -86.6789   37.6061   -4.7522 C   0  0  0  0  0  0  0  0  0  0  0  0
  -86.9378   36.3033   -4.5784 N   0  0  0  0  0  0  0  0  0  0  0  0
  -89.0892   30.4890   -2.9210 C   0  0  0  0  0  0  0  0  0  0  0  0
  -87.7432   30.2954   -2.2737 C   0  0  0  0  0  0  0  0  0  0  0  0
  -87.8780   30.6802   -0.8011 C   0  0  0  0  0  0  0  0  0  0  0  0
  -86.5162   31.7800   -0.3377 S   0  0  0  0  0  0  0  0  0  0  0  0
  -82.1838   28.7707    2.4236 F   0  0  0  0  0  0  0  0  0  0  0  0
  -83.1888   29.4429    1.8005 C   0  0  0  0  0  0  0  0  0  0  0  0
  -82.9064   30.6154    1.1124 C   0  0  0  0  0  0  0  0  0  0  0  0
  -83.8995   31.3144    0.4745 C   0  0  0  0  0  0  0  0  0  0  0  0
  -85.2107   30.8884    0.4878 C   0  0  0  0  0  0  0  0  0  0  0  0
  -85.4784   29.7222    1.1749 C   0  0  0  0  0  0  0  0  0  0  0  0
  -84.4919   29.0024    1.8245 C   0  0  0  0  0  0  0  0  0  0  0  0
 17 18  1  0  0  0
 18 19  2  0  0  0
 19 20  1  0  0  0
 20 21  2  0  0  0
 21 16  1  0  0  0
 16 15  1  0  0  0
 15 14  1  0  0  0
 14 13  1  0  0  0
 13  1  1  0  0  0
  1  2  1  0  0  0
  2  3  1  0  0  0
  3  4  1  0  0  0
  4  7  1  0  0  0
  7  8  2  0  0  0
  8  9  1  0  0  0
  9 10  2  0  0  0
 10 11  1  0  0  0
 11 12  2  0  0  0
  4  5  1  0  0  0
  5  6  1  0  0  0
 21 22  1  0  0  0
 22 23  2  0  0  0
 23 18  1  0  0  0
  6  1  1  0  0  0
 12  7  1  0  0  0
M  END
> <minimizedAffinity>
-6.97977

> <CNNscore>
0.1943883449

> <CNNaffinity>
5.3362655640

> <CNN_VS>
1.0373078585

> <CNNaffinity_variance>
0.3113974631

$$$$
[H]c1nc(N2C([H])([H])C([H])([H])N(C([H])([H])C([H])([H])C([H])([H])Sc3c([H])c([H])c(F)c([H])c3[H])C([H])([H])C2([H])[H])c([H])c([H])c1[H]


 23 25  0  0  0  0  0  0  0  0999 V2000
  -88.5619   29.2613   -1.0733 N   0  0  0  0  0  0  0  0  0  0  0  0
  -89.8829   29.6396   -1.5108 C   0  0  0  0  0  0  0  0  0  0  0  0
  -90.6106   28.5989   -2.3166 C   0  0  0  0  0  0  0  0  0  0  0  0
  -90.5068   27.2807   -1.7731 N   0  0  0  0  0  0  0  0  0  0  0  0
  -89.3258   26.9280   -1.0286 C   0  0  0  0  0  0  0  0  0  0  0  0
  -88.2398   27.8945   -1.3956 C   0  0  0  0  0  0  0  0  0  0  0  0
  -91.5617   26.3534   -1.9800 C   0  0  0  0  0  0  0  0  0  0  0  0
  -91.8482   25.8148   -3.2131 C   0  0  0  0  0  0  0  0  0  0  0  0
  -92.8987   24.9119   -3.3938 C   0  0  0  0  0  0  0  0  0  0  0  0
  -93.6718   24.5430   -2.3284 C   0  0  0  0  0  0  0  0  0  0  0  0
  -93.3669   25.0935   -1.1060 C   0  0  0  0  0  0  0  0  0  0  0  0
  -92.3560   25.9584   -0.9492 N   0  0  0  0  0  0  0  0  0  0  0  0
  -87.5558   30.1863   -1.5481 C   0  0  0  0  0  0  0  0  0  0  0  0
  -87.9097   31.5798   -1.0995 C   0  0  0  0  0  0  0  0  0  0  0  0
  -86.8971   32.5385   -1.7244 C   0  0  0  0  0  0  0  0  0  0  0  0
  -85.8887   33.2858   -0.4194 S   0  0  0  0  0  0  0  0  0  0  0  0
  -82.2270   29.3023    2.0656 F   0  0  0  0  0  0  0  0  0  0  0  0
  -83.0470   30.2179    1.4830 C   0  0  0  0  0  0  0  0  0  0  0  0
  -84.3511   30.3591    1.9386 C   0  0  0  0  0  0  0  0  0  0  0  0
  -85.2005   31.2742    1.3704 C   0  0  0  0  0  0  0  0  0  0  0  0
  -84.8016   32.0873    0.3310 C   0  0  0  0  0  0  0  0  0  0  0  0
  -83.5038   31.9375   -0.1126 C   0  0  0  0  0  0  0  0  0  0  0  0
  -82.6313   31.0212    0.4464 C   0  0  0  0  0  0  0  0  0  0  0  0
 17 18  1  0  0  0
 18 19  2  0  0  0
 19 20  1  0  0  0
 20 21  2  0  0  0
 21 16  1  0  0  0
 16 15  1  0  0  0
 15 14  1  0  0  0
 14 13  1  0  0  0
 13  1  1  0  0  0
  1  2  1  0  0  0
  2  3  1  0  0  0
  3  4  1  0  0  0
  4  7  1  0  0  0
  7  8  2  0  0  0
  8  9  1  0  0  0
  9 10  2  0  0  0
 10 11  1  0  0  0
 11 12  2  0  0  0
  4  5  1  0  0  0
  5  6  1  0  0  0
 21 22  1  0  0  0
 22 23  2  0  0  0
 23 18  1  0  0  0
  6  1  1  0  0  0
 12  7  1  0  0  0
M  END
> <minimizedAffinity>
-6.82203

> <CNNscore>
0.1739771515

> <CNNaffinity>
5.2318191528

> <CNN_VS>
0.9102169871

> <CNNaffinity_variance>
0.2663870454

$$$$
[H]c1c([H])c([H])c2c(c1[H])[C@]([H])(c1c([H])c([H])c(F)c([H])c1[H])C([H])([H])C([H])([H])[C@]2([H])N([H])C([H])([H])[H]


 20 22  0  0  0  0  0  0  0  0999 V2000
  -89.9575   32.2617   -1.5786 C   0  0  0  0  0  0  0  0  0  0  0  0
  -89.4488   31.4389   -0.4426 C   0  0  0  0  0  0  0  0  0  0  0  0
  -87.9878   31.1027   -0.6295 C   0  0  0  0  0  0  0  0  0  0  0  0
  -87.2421   32.4407   -0.5156 C   0  0  0  0  0  0  0  0  0  0  0  0
  -87.6192   33.1758   -1.7621 C   0  0  0  0  0  0  0  0  0  0  0  0
  -86.6867   33.9380   -2.4104 C   0  0  0  0  0  0  0  0  0  0  0  0
  -87.0569   34.6073   -3.5604 C   0  0  0  0  0  0  0  0  0  0  0  0
  -88.3210   34.5340   -4.0715 C   0  0  0  0  0  0  0  0  0  0  0  0
  -89.2434   33.7508   -3.3878 C   0  0  0  0  0  0  0  0  0  0  0  0
  -88.9084   33.0700   -2.2383 C   0  0  0  0  0  0  0  0  0  0  0  0
  -85.8057   32.2852   -0.3251 C   0  0  0  0  0  0  0  0  0  0  0  0
  -85.2955   31.0896    0.1262 C   0  0  0  0  0  0  0  0  0  0  0  0
  -83.9437   30.9008    0.3192 C   0  0  0  0  0  0  0  0  0  0  0  0
  -83.0664   31.9250    0.0588 C   0  0  0  0  0  0  0  0  0  0  0  0
  -81.7306   31.7277    0.2541 F   0  0  0  0  0  0  0  0  0  0  0  0
  -83.5447   33.1244   -0.3907 C   0  0  0  0  0  0  0  0  0  0  0  0
  -84.9186   33.3061   -0.5836 C   0  0  0  0  0  0  0  0  0  0  0  0
  -90.1174   30.3100   -2.9850 C   0  0  0  0  0  0  0  0  0  0  0  0
  -90.7616   31.5072   -2.5215 N   0  0  0  0  0  0  0  0  0  0  0  0
  -91.6331   31.2314   -2.0163 H   0  0  0  0  0  0  0  0  0  0  0  0
 18 19  1  0  0  0
 19  1  1  0  0  0
  1  2  1  0  0  0
  2  3  1  0  0  0
  3  4  1  0  0  0
  4 11  1  0  0  0
 11 12  2  0  0  0
 12 13  1  0  0  0
 13 14  2  0  0  0
 14 15  1  0  0  0
 14 16  1  0  0  0
 16 17  2  0  0  0
  4  5  1  0  0  0
  5  6  2  0  0  0
  6  7  1  0  0  0
  7  8  2  0  0  0
  8  9  1  0  0  0
  9 10  2  0  0  0
 10  1  1  0  0  0
 17 11  1  0  0  0
 10  5  1  0  0  0
 19 20  1  0  0  0
M  END
> <minimizedAffinity>
-7.83429

> <CNNscore>
0.5411342978

> <CNNaffinity>
5.2797145844

> <CNN_VS>
2.8570346832

> <CNNaffinity_variance>
0.1570890695

$$$$
[H]c1c([H])c([H])c2c(c1[H])[C@]([H])(c1c([H])c([H])c(F)c([H])c1[H])C([H])([H])C([H])([H])[C@]2([H])N([H])C([H])([H])[H]


 20 22  0  0  0  0  0  0  0  0999 V2000
  -88.3354   26.3562    0.7957 C   0  0  0  0  0  0  0  0  0  0  0  0
  -87.5120   26.5113    2.0304 C   0  0  0  0  0  0  0  0  0  0  0  0
  -86.1908   27.1748    1.7199 C   0  0  0  0  0  0  0  0  0  0  0  0
  -86.5425   28.6082    1.2947 C   0  0  0  0  0  0  0  0  0  0  0  0
  -87.2002   28.4426   -0.0380 C   0  0  0  0  0  0  0  0  0  0  0  0
  -86.9613   29.3514   -1.0318 C   0  0  0  0  0  0  0  0  0  0  0  0
  -87.5785   29.1780   -2.2551 C   0  0  0  0  0  0  0  0  0  0  0  0
  -88.4185   28.1309   -2.5056 C   0  0  0  0  0  0  0  0  0  0  0  0
  -88.6390   27.2262   -1.4739 C   0  0  0  0  0  0  0  0  0  0  0  0
  -88.0400   27.3687   -0.2418 C   0  0  0  0  0  0  0  0  0  0  0  0
  -85.3937   29.5050    1.2868 C   0  0  0  0  0  0  0  0  0  0  0  0
  -84.1403   29.0225    1.5859 C   0  0  0  0  0  0  0  0  0  0  0  0
  -83.0279   29.8366    1.5892 C   0  0  0  0  0  0  0  0  0  0  0  0
  -83.1560   31.1704    1.2876 C   0  0  0  0  0  0  0  0  0  0  0  0
  -82.0487   31.9674    1.2946 F   0  0  0  0  0  0  0  0  0  0  0  0
  -84.3894   31.6779    0.9864 C   0  0  0  0  0  0  0  0  0  0  0  0
  -85.5125   30.8434    0.9856 C   0  0  0  0  0  0  0  0  0  0  0  0
  -89.6295   24.3708    0.3527 C   0  0  0  0  0  0  0  0  0  0  0  0
  -88.3419   25.0024    0.2741 N   0  0  0  0  0  0  0  0  0  0  0  0
  -88.0750   25.0698   -0.7334 H   0  0  0  0  0  0  0  0  0  0  0  0
 18 19  1  0  0  0
 19  1  1  0  0  0
  1  2  1  0  0  0
  2  3  1  0  0  0
  3  4  1  0  0  0
  4 11  1  0  0  0
 11 12  2  0  0  0
 12 13  1  0  0  0
 13 14  2  0  0  0
 14 15  1  0  0  0
 14 16  1  0  0  0
 16 17  2  0  0  0
  4  5  1  0  0  0
  5  6  2  0  0  0
  6  7  1  0  0  0
  7  8  2  0  0  0
  8  9  1  0  0  0
  9 10  2  0  0  0
 10  1  1  0  0  0
 17 11  1  0  0  0
 10  5  1  0  0  0
 19 20  1  0  0  0
M  END
> <minimizedAffinity>
-8.53878

> <CNNscore>
0.3962371945

> <CNNaffinity>
5.3441805840

> <CNN_VS>
2.1175630093

> <CNNaffinity_variance>
0.2542204857

$$$$
[H]c1c([H])c([H])c2c(c1[H])[C@]([H])(c1c([H])c([H])c(F)c([H])c1[H])C([H])([H])C([H])([H])[C@]2([H])N([H])C([H])([H])[H]


 20 22  0  0  0  0  0  0  0  0999 V2000
  -87.5833   31.8329   -0.8512 C   0  0  0  0  0  0  0  0  0  0  0  0
  -87.9801   30.5502   -0.2002 C   0  0  0  0  0  0  0  0  0  0  0  0
  -86.7901   29.6334   -0.0409 C   0  0  0  0  0  0  0  0  0  0  0  0
  -85.8720   30.3274    0.9764 C   0  0  0  0  0  0  0  0  0  0  0  0
  -85.3359   31.5109    0.2360 C   0  0  0  0  0  0  0  0  0  0  0  0
  -84.0346   31.8925    0.4149 C   0  0  0  0  0  0  0  0  0  0  0  0
  -83.5606   32.9878   -0.2801 C   0  0  0  0  0  0  0  0  0  0  0  0
  -84.3462   33.7021   -1.1387 C   0  0  0  0  0  0  0  0  0  0  0  0
  -85.6632   33.2871   -1.2968 C   0  0  0  0  0  0  0  0  0  0  0  0
  -86.1688   32.1995   -0.6196 C   0  0  0  0  0  0  0  0  0  0  0  0
  -84.8453   29.4474    1.5199 C   0  0  0  0  0  0  0  0  0  0  0  0
  -83.5284   29.8460    1.5263 C   0  0  0  0  0  0  0  0  0  0  0  0
  -82.5270   29.0444    2.0314 C   0  0  0  0  0  0  0  0  0  0  0  0
  -82.8348   27.8091    2.5469 C   0  0  0  0  0  0  0  0  0  0  0  0
  -81.8360   27.0235    3.0434 F   0  0  0  0  0  0  0  0  0  0  0  0
  -84.1351   27.3865    2.5538 C   0  0  0  0  0  0  0  0  0  0  0  0
  -85.1444   28.2075    2.0389 C   0  0  0  0  0  0  0  0  0  0  0  0
  -89.3318   32.2968   -2.4450 C   0  0  0  0  0  0  0  0  0  0  0  0
  -87.9623   31.9104   -2.2495 N   0  0  0  0  0  0  0  0  0  0  0  0
  -87.3545   32.6408   -2.6830 H   0  0  0  0  0  0  0  0  0  0  0  0
 18 19  1  0  0  0
 19  1  1  0  0  0
  1  2  1  0  0  0
  2  3  1  0  0  0
  3  4  1  0  0  0
  4 11  1  0  0  0
 11 12  2  0  0  0
 12 13  1  0  0  0
 13 14  2  0  0  0
 14 15  1  0  0  0
 14 16  1  0  0  0
 16 17  2  0  0  0
  4  5  1  0  0  0
  5  6  2  0  0  0
  6  7  1  0  0  0
  7  8  2  0  0  0
  8  9  1  0  0  0
  9 10  2  0  0  0
 10  1  1  0  0  0
 17 11  1  0  0  0
 10  5  1  0  0  0
 19 20  1  0  0  0
M  END
> <minimizedAffinity>
-9.15458

> <CNNscore>
0.3622666299

> <CNNaffinity>
5.6785330772

> <CNN_VS>
2.0571429729

> <CNNaffinity_variance>
0.0939882621

$$$$
[H]c1c([H])c([H])c2c(c1[H])[C@]([H])(c1c([H])c([H])c(F)c([H])c1[H])C([H])([H])C([H])([H])[C@]2([H])N([H])C([H])([H])[H]


 20 22  0  0  0  0  0  0  0  0999 V2000
  -87.6590   33.3000   -2.5930 C   0  0  0  0  0  0  0  0  0  0  0  0
  -86.2326   33.4753   -2.1917 C   0  0  0  0  0  0  0  0  0  0  0  0
  -85.9996   32.9704   -0.7870 C   0  0  0  0  0  0  0  0  0  0  0  0
  -86.2079   31.4503   -0.8586 C   0  0  0  0  0  0  0  0  0  0  0  0
  -87.6795   31.2933   -1.0733 C   0  0  0  0  0  0  0  0  0  0  0  0
  -88.3524   30.2766   -0.4535 C   0  0  0  0  0  0  0  0  0  0  0  0
  -89.7114   30.1514   -0.6652 C   0  0  0  0  0  0  0  0  0  0  0  0
  -90.4053   31.0075   -1.4717 C   0  0  0  0  0  0  0  0  0  0  0  0
  -89.6907   32.0291   -2.0858 C   0  0  0  0  0  0  0  0  0  0  0  0
  -88.3351   32.1832   -1.8968 C   0  0  0  0  0  0  0  0  0  0  0  0
  -85.6954   30.7430    0.3080 C   0  0  0  0  0  0  0  0  0  0  0  0
  -85.4956   29.3826    0.2568 C   0  0  0  0  0  0  0  0  0  0  0  0
  -85.0122   28.6761    1.3372 C   0  0  0  0  0  0  0  0  0  0  0  0
  -84.7164   29.3329    2.5067 C   0  0  0  0  0  0  0  0  0  0  0  0
  -84.2394   28.6239    3.5702 F   0  0  0  0  0  0  0  0  0  0  0  0
  -84.9050   30.6848    2.5867 C   0  0  0  0  0  0  0  0  0  0  0  0
  -85.3960   31.3931    1.4844 C   0  0  0  0  0  0  0  0  0  0  0  0
  -87.8304   35.5926   -3.3194 C   0  0  0  0  0  0  0  0  0  0  0  0
  -88.4239   34.5322   -2.5535 N   0  0  0  0  0  0  0  0  0  0  0  0
  -89.3579   34.3167   -2.9681 H   0  0  0  0  0  0  0  0  0  0  0  0
 18 19  1  0  0  0
 19  1  1  0  0  0
  1  2  1  0  0  0
  2  3  1  0  0  0
  3  4  1  0  0  0
  4 11  1  0  0  0
 11 12  2  0  0  0
 12 13  1  0  0  0
 13 14  2  0  0  0
 14 15  1  0  0  0
 14 16  1  0  0  0
 16 17  2  0  0  0
  4  5  1  0  0  0
  5  6  2  0  0  0
  6  7  1  0  0  0
  7  8  2  0  0  0
  8  9  1  0  0  0
  9 10  2  0  0  0
 10  1  1  0  0  0
 17 11  1  0  0  0
 10  5  1  0  0  0
 19 20  1  0  0  0
M  END
> <minimizedAffinity>
-7.31599

> <CNNscore>
0.3386819661

> <CNNaffinity>
5.2226080894

> <CNN_VS>
1.7688031197

> <CNNaffinity_variance>
0.1988425702

$$$$
[H]c1c([H])c([H])c2c(c1[H])[C@]([H])(c1c([H])c([H])c(F)c([H])c1[H])C([H])([H])C([H])([H])[C@]2([H])N([H])C([H])([H])[H]


 20 22  0  0  0  0  0  0  0  0999 V2000
  -88.7140   26.2622   -1.0437 C   0  0  0  0  0  0  0  0  0  0  0  0
  -87.3073   26.5596   -1.4425 C   0  0  0  0  0  0  0  0  0  0  0  0
  -87.1234   28.0333   -1.7195 C   0  0  0  0  0  0  0  0  0  0  0  0
  -87.3074   28.7308   -0.3635 C   0  0  0  0  0  0  0  0  0  0  0  0
  -88.7670   28.5842   -0.0728 C   0  0  0  0  0  0  0  0  0  0  0  0
  -89.4498   29.6128    0.5158 C   0  0  0  0  0  0  0  0  0  0  0  0
  -90.7974   29.4557    0.7738 C   0  0  0  0  0  0  0  0  0  0  0  0
  -91.4706   28.3094    0.4617 C   0  0  0  0  0  0  0  0  0  0  0  0
  -90.7464   27.2843   -0.1354 C   0  0  0  0  0  0  0  0  0  0  0  0
  -89.4017   27.4071   -0.4069 C   0  0  0  0  0  0  0  0  0  0  0  0
  -86.8320   30.1084   -0.3551 C   0  0  0  0  0  0  0  0  0  0  0  0
  -87.3488   31.0216   -1.2452 C   0  0  0  0  0  0  0  0  0  0  0  0
  -86.9272   32.3338   -1.2700 C   0  0  0  0  0  0  0  0  0  0  0  0
  -85.9640   32.7591   -0.3880 C   0  0  0  0  0  0  0  0  0  0  0  0
  -85.5533   34.0597   -0.4217 F   0  0  0  0  0  0  0  0  0  0  0  0
  -85.4323   31.8737    0.5080 C   0  0  0  0  0  0  0  0  0  0  0  0
  -85.8670   30.5439    0.5254 C   0  0  0  0  0  0  0  0  0  0  0  0
  -89.7314   24.2524   -1.9031 C   0  0  0  0  0  0  0  0  0  0  0  0
  -89.4970   25.6553   -2.1036 N   0  0  0  0  0  0  0  0  0  0  0  0
  -90.4216   26.1410   -2.1069 H   0  0  0  0  0  0  0  0  0  0  0  0
 18 19  1  0  0  0
 19  1  1  0  0  0
  1  2  1  0  0  0
  2  3  1  0  0  0
  3  4  1  0  0  0
  4 11  1  0  0  0
 11 12  2  0  0  0
 12 13  1  0  0  0
 13 14  2  0  0  0
 14 15  1  0  0  0
 14 16  1  0  0  0
 16 17  2  0  0  0
  4  5  1  0  0  0
  5  6  2  0  0  0
  6  7  1  0  0  0
  7  8  2  0  0  0
  8  9  1  0  0  0
  9 10  2  0  0  0
 10  1  1  0  0  0
 17 11  1  0  0  0
 10  5  1  0  0  0
 19 20  1  0  0  0
M  END
> <minimizedAffinity>
-6.35819

> <CNNscore>
0.2682975829

> <CNNaffinity>
5.1591730118

> <CNN_VS>
1.3841936588

> <CNNaffinity_variance>
0.3197548687

$$$$
[H]c1c([H])c([H])c2c(c1[H])[C@]([H])(c1c([H])c([H])c(F)c([H])c1[H])C([H])([H])C([H])([H])[C@]2([H])N([H])C([H])([H])[H]


 20 22  0  0  0  0  0  0  0  0999 V2000
  -90.7771   30.2985   -1.9741 C   0  0  0  0  0  0  0  0  0  0  0  0
  -90.4266   29.9742   -0.5605 C   0  0  0  0  0  0  0  0  0  0  0  0
  -88.9603   29.6343   -0.4309 C   0  0  0  0  0  0  0  0  0  0  0  0
  -88.2091   30.9386   -0.7369 C   0  0  0  0  0  0  0  0  0  0  0  0
  -88.4173   31.1441   -2.2035 C   0  0  0  0  0  0  0  0  0  0  0  0
  -87.3984   31.6353   -2.9726 C   0  0  0  0  0  0  0  0  0  0  0  0
  -87.6127   31.8159   -4.3250 C   0  0  0  0  0  0  0  0  0  0  0  0
  -88.8061   31.5211   -4.9196 C   0  0  0  0  0  0  0  0  0  0  0  0
  -89.8196   31.0239   -4.1089 C   0  0  0  0  0  0  0  0  0  0  0  0
  -89.6404   30.8315   -2.7569 C   0  0  0  0  0  0  0  0  0  0  0  0
  -86.8099   30.9064   -0.3308 C   0  0  0  0  0  0  0  0  0  0  0  0
  -86.1262   32.0816   -0.1191 C   0  0  0  0  0  0  0  0  0  0  0  0
  -84.8027   32.0953    0.2662 C   0  0  0  0  0  0  0  0  0  0  0  0
  -84.1315   30.9109    0.4484 C   0  0  0  0  0  0  0  0  0  0  0  0
  -82.8215   30.9358    0.8289 F   0  0  0  0  0  0  0  0  0  0  0  0
  -84.7854   29.7274    0.2453 C   0  0  0  0  0  0  0  0  0  0  0  0
  -86.1289   29.7240   -0.1455 C   0  0  0  0  0  0  0  0  0  0  0  0
  -92.2965   28.4366   -1.7800 C   0  0  0  0  0  0  0  0  0  0  0  0
  -91.4741   29.2240   -2.6557 N   0  0  0  0  0  0  0  0  0  0  0  0
  -92.0944   29.6739   -3.3653 H   0  0  0  0  0  0  0  0  0  0  0  0
 18 19  1  0  0  0
 19  1  1  0  0  0
  1  2  1  0  0  0
  2  3  1  0  0  0
  3  4  1  0  0  0
  4 11  1  0  0  0
 11 12  2  0  0  0
 12 13  1  0  0  0
 13 14  2  0  0  0
 14 15  1  0  0  0
 14 16  1  0  0  0
 16 17  2  0  0  0
  4  5  1  0  0  0
  5  6  2  0  0  0
  6  7  1  0  0  0
  7  8  2  0  0  0
  8  9  1  0  0  0
  9 10  2  0  0  0
 10  1  1  0  0  0
 17 11  1  0  0  0
 10  5  1  0  0  0
 19 20  1  0  0  0
M  END
> <minimizedAffinity>
-6.98083

> <CNNscore>
0.2073804140

> <CNNaffinity>
4.9563102722

> <CNN_VS>
1.0278416872

> <CNNaffinity_variance>
0.2517341673

$$$$
[H]c1c([H])c([H])c2c(c1[H])[C@]([H])(c1c([H])c([H])c(F)c([H])c1[H])C([H])([H])C([H])([H])[C@]2([H])N([H])C([H])([H])[H]


 20 22  0  0  0  0  0  0  0  0999 V2000
  -88.8001   30.6406   -2.4145 C   0  0  0  0  0  0  0  0  0  0  0  0
  -88.6045   29.2619   -1.8784 C   0  0  0  0  0  0  0  0  0  0  0  0
  -87.1688   29.0413   -1.4634 C   0  0  0  0  0  0  0  0  0  0  0  0
  -86.9427   29.9703   -0.2613 C   0  0  0  0  0  0  0  0  0  0  0  0
  -86.9540   31.3432   -0.8540 C   0  0  0  0  0  0  0  0  0  0  0  0
  -86.0886   32.2932   -0.3856 C   0  0  0  0  0  0  0  0  0  0  0  0
  -86.1158   33.5540   -0.9486 C   0  0  0  0  0  0  0  0  0  0  0  0
  -86.9765   33.8840   -1.9560 C   0  0  0  0  0  0  0  0  0  0  0  0
  -87.8420   32.8950   -2.4081 C   0  0  0  0  0  0  0  0  0  0  0  0
  -87.8419   31.6273   -1.8694 C   0  0  0  0  0  0  0  0  0  0  0  0
  -85.7357   29.6545    0.4918 C   0  0  0  0  0  0  0  0  0  0  0  0
  -85.7782   28.7226    1.5033 C   0  0  0  0  0  0  0  0  0  0  0  0
  -84.6597   28.3947    2.2393 C   0  0  0  0  0  0  0  0  0  0  0  0
  -83.4599   29.0062    1.9688 C   0  0  0  0  0  0  0  0  0  0  0  0
  -82.3593   28.6749    2.7038 F   0  0  0  0  0  0  0  0  0  0  0  0
  -83.3877   29.9363    0.9691 C   0  0  0  0  0  0  0  0  0  0  0  0
  -84.5286   30.2622    0.2277 C   0  0  0  0  0  0  0  0  0  0  0  0
  -90.2157   30.9889   -4.3348 C   0  0  0  0  0  0  0  0  0  0  0  0
  -88.8933   30.6880   -3.8615 N   0  0  0  0  0  0  0  0  0  0  0  0
  -88.2548   31.4520   -4.1766 H   0  0  0  0  0  0  0  0  0  0  0  0
 18 19  1  0  0  0
 19  1  1  0  0  0
  1  2  1  0  0  0
  2  3  1  0  0  0
  3  4  1  0  0  0
  4 11  1  0  0  0
 11 12  2  0  0  0
 12 13  1  0  0  0
 13 14  2  0  0  0
 14 15  1  0  0  0
 14 16  1  0  0  0
 16 17  2  0  0  0
  4  5  1  0  0  0
  5  6  2  0  0  0
  6  7  1  0  0  0
  7  8  2  0  0  0
  8  9  1  0  0  0
  9 10  2  0  0  0
 10  1  1  0  0  0
 17 11  1  0  0  0
 10  5  1  0  0  0
 19 20  1  0  0  0
M  END
> <minimizedAffinity>
-8.42250

> <CNNscore>
0.2009836882

> <CNNaffinity>
5.0617713928

> <CNN_VS>
1.0173335075

> <CNNaffinity_variance>
0.2219621241

$$$$
[H]c1c([H])c([H])c2c(c1[H])[C@]([H])(c1c([H])c([H])c(F)c([H])c1[H])C([H])([H])C([H])([H])[C@]2([H])N([H])C([H])([H])[H]


 20 22  0  0  0  0  0  0  0  0999 V2000
  -89.5254   29.0856   -0.4161 C   0  0  0  0  0  0  0  0  0  0  0  0
  -88.5441   28.2289    0.3116 C   0  0  0  0  0  0  0  0  0  0  0  0
  -87.1261   28.6517    0.0068 C   0  0  0  0  0  0  0  0  0  0  0  0
  -86.9725   30.0476    0.6291 C   0  0  0  0  0  0  0  0  0  0  0  0
  -87.8190   30.9273   -0.2346 C   0  0  0  0  0  0  0  0  0  0  0  0
  -87.3959   32.1920   -0.5384 C   0  0  0  0  0  0  0  0  0  0  0  0
  -88.1933   32.9864   -1.3387 C   0  0  0  0  0  0  0  0  0  0  0  0
  -89.3886   32.5525   -1.8364 C   0  0  0  0  0  0  0  0  0  0  0  0
  -89.7881   31.2625   -1.5082 C   0  0  0  0  0  0  0  0  0  0  0  0
  -89.0178   30.4433   -0.7127 C   0  0  0  0  0  0  0  0  0  0  0  0
  -85.5849   30.4783    0.7423 C   0  0  0  0  0  0  0  0  0  0  0  0
  -85.1638   31.1605    1.8606 C   0  0  0  0  0  0  0  0  0  0  0  0
  -83.8605   31.5849    2.0074 C   0  0  0  0  0  0  0  0  0  0  0  0
  -82.9425   31.3282    1.0185 C   0  0  0  0  0  0  0  0  0  0  0  0
  -81.6554   31.7535    1.1735 F   0  0  0  0  0  0  0  0  0  0  0  0
  -83.3324   30.6521   -0.1042 C   0  0  0  0  0  0  0  0  0  0  0  0
  -84.6576   30.2253   -0.2437 C   0  0  0  0  0  0  0  0  0  0  0  0
  -89.1413   27.7389   -2.3787 C   0  0  0  0  0  0  0  0  0  0  0  0
  -90.1067   28.4371   -1.5765 N   0  0  0  0  0  0  0  0  0  0  0  0
  -90.7934   27.7383   -1.2147 H   0  0  0  0  0  0  0  0  0  0  0  0
 18 19  1  0  0  0
 19  1  1  0  0  0
  1  2  1  0  0  0
  2  3  1  0  0  0
  3  4  1  0  0  0
  4 11  1  0  0  0
 11 12  2  0  0  0
 12 13  1  0  0  0
 13 14  2  0  0  0
 14 15  1  0  0  0
 14 16  1  0  0  0
 16 17  2  0  0  0
  4  5  1  0  0  0
  5  6  2  0  0  0
  6  7  1  0  0  0
  7  8  2  0  0  0
  8  9  1  0  0  0
  9 10  2  0  0  0
 10  1  1  0  0  0
 17 11  1  0  0  0
 10  5  1  0  0  0
 19 20  1  0  0  0
M  END
> <minimizedAffinity>
-7.04120

> <CNNscore>
0.1972940713

> <CNNaffinity>
5.0971975327

> <CNN_VS>
1.0056468248

> <CNNaffinity_variance>
0.2242772132

$$$$
[H]c1c([H])c([H])c2c(c1[H])[C@]([H])(c1c([H])c([H])c(F)c([H])c1[H])C([H])([H])C([H])([H])[C@]2([H])N([H])C([H])([H])[H]


 20 22  0  0  0  0  0  0  0  0999 V2000
  -88.9314   27.4291   -1.7961 C   0  0  0  0  0  0  0  0  0  0  0  0
  -87.9764   28.2855   -2.5582 C   0  0  0  0  0  0  0  0  0  0  0  0
  -87.4628   29.4185   -1.7010 C   0  0  0  0  0  0  0  0  0  0  0  0
  -86.6135   28.7525   -0.6082 C   0  0  0  0  0  0  0  0  0  0  0  0
  -87.6138   28.0533    0.2560 C   0  0  0  0  0  0  0  0  0  0  0  0
  -87.4435   28.0326    1.6130 C   0  0  0  0  0  0  0  0  0  0  0  0
  -88.3805   27.3820    2.3916 C   0  0  0  0  0  0  0  0  0  0  0  0
  -89.4699   26.7593    1.8532 C   0  0  0  0  0  0  0  0  0  0  0  0
  -89.6122   26.7996    0.4712 C   0  0  0  0  0  0  0  0  0  0  0  0
  -88.6970   27.4393   -0.3353 C   0  0  0  0  0  0  0  0  0  0  0  0
  -85.7573   29.6899    0.1073 C   0  0  0  0  0  0  0  0  0  0  0  0
  -84.6889   29.2265    0.8403 C   0  0  0  0  0  0  0  0  0  0  0  0
  -83.8546   30.0792    1.5309 C   0  0  0  0  0  0  0  0  0  0  0  0
  -84.0816   31.4335    1.4977 C   0  0  0  0  0  0  0  0  0  0  0  0
  -83.2503   32.2684    2.1855 F   0  0  0  0  0  0  0  0  0  0  0  0
  -85.1359   31.9227    0.7775 C   0  0  0  0  0  0  0  0  0  0  0  0
  -85.9770   31.0490    0.0797 C   0  0  0  0  0  0  0  0  0  0  0  0
  -90.8498   26.6875   -3.0541 C   0  0  0  0  0  0  0  0  0  0  0  0
  -90.3200   27.6644   -2.1441 N   0  0  0  0  0  0  0  0  0  0  0  0
  -90.8642   27.6071   -1.2545 H   0  0  0  0  0  0  0  0  0  0  0  0
 18 19  1  0  0  0
 19  1  1  0  0  0
  1  2  1  0  0  0
  2  3  1  0  0  0
  3  4  1  0  0  0
  4 11  1  0  0  0
 11 12  2  0  0  0
 12 13  1  0  0  0
 13 14  2  0  0  0
 14 15  1  0  0  0
 14 16  1  0  0  0
 16 17  2  0  0  0
  4  5  1  0  0  0
  5  6  2  0  0  0
  6  7  1  0  0  0
  7  8  2  0  0  0
  8  9  1  0  0  0
  9 10  2  0  0  0
 10  1  1  0  0  0
 17 11  1  0  0  0
 10  5  1  0  0  0
 19 20  1  0  0  0
M  END
> <minimizedAffinity>
-7.44720

> <CNNscore>
0.1814455539

> <CNNaffinity>
5.1394629478

> <CNN_VS>
0.9325327277

> <CNNaffinity_variance>
0.3457041383

$$$$
[H]OC(=O)C([H])(Oc1c([H])c([H])c(-c2noc([H])c3c(C(=O)C4([H])C([H])([H])C([H])([H])C([H])([H])C4([H])[H])c([H])c([H])c2-3)c([H])c1[H])C(=O)O[H]


 32 35  0  0  0  0  0  0  0  0999 V2000
  -86.3201   30.4796    0.5815 C   0  0  0  0  0  0  0  0  0  0  0  0
  -87.4460   29.9099    0.0258 C   0  0  0  0  0  0  0  0  0  0  0  0
  -87.9196   30.6690   -1.0390 C   0  0  0  0  0  0  0  0  0  0  0  0
  -87.0864   31.7565   -1.1813 C   0  0  0  0  0  0  0  0  0  0  0  0
  -87.0190   32.8433   -2.0269 C   0  0  0  0  0  0  0  0  0  0  0  0
  -86.0268   33.7471   -1.8754 N   0  0  0  0  0  0  0  0  0  0  0  0
  -85.1387   33.6189   -0.9568 O   0  0  0  0  0  0  0  0  0  0  0  0
  -85.1094   32.6273   -0.1018 C   0  0  0  0  0  0  0  0  0  0  0  0
  -86.0704   31.6254   -0.1432 C   0  0  0  0  0  0  0  0  0  0  0  0
  -88.0106   33.0178   -3.0842 C   0  0  0  0  0  0  0  0  0  0  0  0
  -89.0224   33.9384   -2.9200 C   0  0  0  0  0  0  0  0  0  0  0  0
  -89.9962   34.1415   -3.8912 C   0  0  0  0  0  0  0  0  0  0  0  0
  -89.9787   33.4215   -5.0574 C   0  0  0  0  0  0  0  0  0  0  0  0
  -88.9579   32.4863   -5.2335 C   0  0  0  0  0  0  0  0  0  0  0  0
  -88.0110   32.3039   -4.2642 C   0  0  0  0  0  0  0  0  0  0  0  0
  -90.9031   33.5712   -6.0493 O   0  0  0  0  0  0  0  0  0  0  0  0
  -91.4306   34.7232   -6.6065 C   0  0  0  0  0  0  0  0  0  0  0  0
  -92.7941   34.4773   -7.1053 C   0  0  0  0  0  0  0  0  0  0  0  0
  -93.7983   35.0159   -6.5532 O   0  0  0  0  0  0  0  0  0  0  0  0
  -93.0492   33.6618   -8.1786 O   0  0  0  0  0  0  0  0  0  0  0  0
  -93.4837   32.7568   -8.0657 H   0  0  0  0  0  0  0  0  0  0  0  0
  -90.5366   35.3936   -7.5787 C   0  0  0  0  0  0  0  0  0  0  0  0
  -89.5735   36.0792   -7.1617 O   0  0  0  0  0  0  0  0  0  0  0  0
  -90.7775   35.2532   -8.9359 O   0  0  0  0  0  0  0  0  0  0  0  0
  -90.0898   35.5925   -9.5936 H   0  0  0  0  0  0  0  0  0  0  0  0
  -85.8478   30.3353    2.8808 O   0  0  0  0  0  0  0  0  0  0  0  0
  -85.5249   30.0120    1.7078 C   0  0  0  0  0  0  0  0  0  0  0  0
  -84.3274   29.1607    1.5859 C   0  0  0  0  0  0  0  0  0  0  0  0
  -83.0387   29.8234    1.8748 C   0  0  0  0  0  0  0  0  0  0  0  0
  -82.1139   28.6411    2.1891 C   0  0  0  0  0  0  0  0  0  0  0  0
  -82.9811   27.5253    2.6710 C   0  0  0  0  0  0  0  0  0  0  0  0
  -84.3979   27.9891    2.5128 C   0  0  0  0  0  0  0  0  0  0  0  0
 26 27  2  0  0  0
 27  1  1  0  0  0
  1  2  2  0  0  0
  2  3  1  0  0  0
  3  4  2  0  0  0
  4  5  1  0  0  0
  5 10  1  0  0  0
 10 11  2  0  0  0
 11 12  1  0  0  0
 12 13  2  0  0  0
 13 16  1  0  0  0
 16 17  1  0  0  0
 17 18  1  0  0  0
 18 19  2  0  0  0
 18 20  1  0  0  0
 17 22  1  0  0  0
 22 23  2  0  0  0
 22 24  1  0  0  0
 13 14  1  0  0  0
 14 15  2  0  0  0
  5  6  2  0  0  0
  6  7  1  0  0  0
  7  8  1  0  0  0
  8  9  2  0  0  0
 27 28  1  0  0  0
 28 29  1  0  0  0
 29 30  1  0  0  0
 30 31  1  0  0  0
 31 32  1  0  0  0
  9  1  1  0  0  0
 32 28  1  0  0  0
  9  4  1  0  0  0
 15 10  1  0  0  0
 20 21  1  0  0  0
 24 25  1  0  0  0
M  END
> <minimizedAffinity>
-7.99325

> <CNNscore>
0.2181853652

> <CNNaffinity>
5.6298379898

> <CNN_VS>
1.2283482552

> <CNNaffinity_variance>
0.5583024025

$$$$
[H]OC(=O)C([H])(Oc1c([H])c([H])c(-c2noc([H])c3c(C(=O)C4([H])C([H])([H])C([H])([H])C([H])([H])C4([H])[H])c([H])c([H])c2-3)c([H])c1[H])C(=O)O[H]


 32 35  0  0  0  0  0  0  0  0999 V2000
  -86.5311   30.1533    0.5700 C   0  0  0  0  0  0  0  0  0  0  0  0
  -87.6321   29.6423   -0.0839 C   0  0  0  0  0  0  0  0  0  0  0  0
  -88.0633   30.5020   -1.0885 C   0  0  0  0  0  0  0  0  0  0  0  0
  -87.2273   31.5965   -1.0904 C   0  0  0  0  0  0  0  0  0  0  0  0
  -87.1277   32.7601   -1.8232 C   0  0  0  0  0  0  0  0  0  0  0  0
  -86.1444   33.6432   -1.5442 N   0  0  0  0  0  0  0  0  0  0  0  0
  -85.2944   33.4247   -0.6068 O   0  0  0  0  0  0  0  0  0  0  0  0
  -85.2980   32.3549    0.1484 C   0  0  0  0  0  0  0  0  0  0  0  0
  -86.2543   31.3635   -0.0293 C   0  0  0  0  0  0  0  0  0  0  0  0
  -88.0756   33.0382   -2.8983 C   0  0  0  0  0  0  0  0  0  0  0  0
  -89.0075   34.0404   -2.7385 C   0  0  0  0  0  0  0  0  0  0  0  0
  -89.9372   34.3440   -3.7266 C   0  0  0  0  0  0  0  0  0  0  0  0
  -89.9549   33.6453   -4.9057 C   0  0  0  0  0  0  0  0  0  0  0  0
  -89.0150   32.6280   -5.0774 C   0  0  0  0  0  0  0  0  0  0  0  0
  -88.1102   32.3474   -4.0914 C   0  0  0  0  0  0  0  0  0  0  0  0
  -90.8394   33.8917   -5.9144 O   0  0  0  0  0  0  0  0  0  0  0  0
  -90.6299   34.4475   -7.1646 C   0  0  0  0  0  0  0  0  0  0  0  0
  -90.2359   35.8609   -7.0413 C   0  0  0  0  0  0  0  0  0  0  0  0
  -89.0589   36.2372   -7.3174 O   0  0  0  0  0  0  0  0  0  0  0  0
  -91.1082   36.8344   -6.6246 O   0  0  0  0  0  0  0  0  0  0  0  0
  -91.0243   37.2685   -5.7163 H   0  0  0  0  0  0  0  0  0  0  0  0
  -91.7245   34.2010   -8.1315 C   0  0  0  0  0  0  0  0  0  0  0  0
  -91.9777   35.0586   -9.0101 O   0  0  0  0  0  0  0  0  0  0  0  0
  -92.4534   33.0254   -8.0510 O   0  0  0  0  0  0  0  0  0  0  0  0
  -93.1010   32.7983   -8.7925 H   0  0  0  0  0  0  0  0  0  0  0  0
  -86.2555   29.6157    2.8429 O   0  0  0  0  0  0  0  0  0  0  0  0
  -85.7816   29.5772    1.6773 C   0  0  0  0  0  0  0  0  0  0  0  0
  -84.4642   28.9289    1.5438 C   0  0  0  0  0  0  0  0  0  0  0  0
  -83.2944   29.8153    1.7142 C   0  0  0  0  0  0  0  0  0  0  0  0
  -82.1698   28.8291    2.0527 C   0  0  0  0  0  0  0  0  0  0  0  0
  -82.8132   27.6245    2.6561 C   0  0  0  0  0  0  0  0  0  0  0  0
  -84.2937   27.8344    2.5486 C   0  0  0  0  0  0  0  0  0  0  0  0
 26 27  2  0  0  0
 27  1  1  0  0  0
  1  2  2  0  0  0
  2  3  1  0  0  0
  3  4  2  0  0  0
  4  5  1  0  0  0
  5 10  1  0  0  0
 10 11  2  0  0  0
 11 12  1  0  0  0
 12 13  2  0  0  0
 13 16  1  0  0  0
 16 17  1  0  0  0
 17 18  1  0  0  0
 18 19  2  0  0  0
 18 20  1  0  0  0
 17 22  1  0  0  0
 22 23  2  0  0  0
 22 24  1  0  0  0
 13 14  1  0  0  0
 14 15  2  0  0  0
  5  6  2  0  0  0
  6  7  1  0  0  0
  7  8  1  0  0  0
  8  9  2  0  0  0
 27 28  1  0  0  0
 28 29  1  0  0  0
 29 30  1  0  0  0
 30 31  1  0  0  0
 31 32  1  0  0  0
  9  1  1  0  0  0
 32 28  1  0  0  0
  9  4  1  0  0  0
 15 10  1  0  0  0
 20 21  1  0  0  0
 24 25  1  0  0  0
M  END
> <minimizedAffinity>
-8.13832

> <CNNscore>
0.2159677893

> <CNNaffinity>
5.5585255623

> <CNN_VS>
1.2004624605

> <CNNaffinity_variance>
0.4498334527

$$$$
[H]OC(=O)C([H])(Oc1c([H])c([H])c(-c2noc([H])c3c(C(=O)C4([H])C([H])([H])C([H])([H])C([H])([H])C4([H])[H])c([H])c([H])c2-3)c([H])c1[H])C(=O)O[H]


 32 35  0  0  0  0  0  0  0  0999 V2000
  -86.1146   30.7994    0.6828 C   0  0  0  0  0  0  0  0  0  0  0  0
  -87.3568   30.3295    0.3128 C   0  0  0  0  0  0  0  0  0  0  0  0
  -87.8488   31.0231   -0.7877 C   0  0  0  0  0  0  0  0  0  0  0  0
  -86.9091   31.9651   -1.1433 C   0  0  0  0  0  0  0  0  0  0  0  0
  -86.8028   32.9324   -2.1200 C   0  0  0  0  0  0  0  0  0  0  0  0
  -85.6961   33.7046   -2.1779 N   0  0  0  0  0  0  0  0  0  0  0  0
  -84.7340   33.5597   -1.3399 O   0  0  0  0  0  0  0  0  0  0  0  0
  -84.7321   32.6742   -0.3751 C   0  0  0  0  0  0  0  0  0  0  0  0
  -85.8078   31.8134   -0.1993 C   0  0  0  0  0  0  0  0  0  0  0  0
  -87.8768   33.1214   -3.0908 C   0  0  0  0  0  0  0  0  0  0  0  0
  -88.8203   34.1023   -2.8761 C   0  0  0  0  0  0  0  0  0  0  0  0
  -89.8672   34.3222   -3.7640 C   0  0  0  0  0  0  0  0  0  0  0  0
  -89.9940   33.5587   -4.8953 C   0  0  0  0  0  0  0  0  0  0  0  0
  -89.0434   32.5624   -5.1221 C   0  0  0  0  0  0  0  0  0  0  0  0
  -88.0222   32.3646   -4.2345 C   0  0  0  0  0  0  0  0  0  0  0  0
  -90.9964   33.7217   -5.8060 O   0  0  0  0  0  0  0  0  0  0  0  0
  -92.2243   33.0897   -5.8992 C   0  0  0  0  0  0  0  0  0  0  0  0
  -92.8048   33.2853   -7.2382 C   0  0  0  0  0  0  0  0  0  0  0  0
  -92.0902   33.6711   -8.2097 O   0  0  0  0  0  0  0  0  0  0  0  0
  -94.1327   33.0658   -7.5039 O   0  0  0  0  0  0  0  0  0  0  0  0
  -94.7711   33.8282   -7.6823 H   0  0  0  0  0  0  0  0  0  0  0  0
  -93.1498   33.3905   -4.7827 C   0  0  0  0  0  0  0  0  0  0  0  0
  -93.8713   34.4143   -4.8368 O   0  0  0  0  0  0  0  0  0  0  0  0
  -93.2052   32.5355   -3.6937 O   0  0  0  0  0  0  0  0  0  0  0  0
  -93.9323   32.6658   -3.0045 H   0  0  0  0  0  0  0  0  0  0  0  0
  -85.3492   30.9107    2.9038 O   0  0  0  0  0  0  0  0  0  0  0  0
  -85.2626   30.3560    1.7770 C   0  0  0  0  0  0  0  0  0  0  0  0
  -84.2687   29.2721    1.6726 C   0  0  0  0  0  0  0  0  0  0  0  0
  -82.8546   29.6884    1.7733 C   0  0  0  0  0  0  0  0  0  0  0  0
  -82.1460   28.3856    2.1637 C   0  0  0  0  0  0  0  0  0  0  0  0
  -83.1571   27.5281    2.8504 C   0  0  0  0  0  0  0  0  0  0  0  0
  -84.4677   28.2483    2.7445 C   0  0  0  0  0  0  0  0  0  0  0  0
 26 27  2  0  0  0
 27  1  1  0  0  0
  1  2  2  0  0  0
  2  3  1  0  0  0
  3  4  2  0  0  0
  4  5  1  0  0  0
  5 10  1  0  0  0
 10 11  2  0  0  0
 11 12  1  0  0  0
 12 13  2  0  0  0
 13 16  1  0  0  0
 16 17  1  0  0  0
 17 18  1  0  0  0
 18 19  2  0  0  0
 18 20  1  0  0  0
 17 22  1  0  0  0
 22 23  2  0  0  0
 22 24  1  0  0  0
 13 14  1  0  0  0
 14 15  2  0  0  0
  5  6  2  0  0  0
  6  7  1  0  0  0
  7  8  1  0  0  0
  8  9  2  0  0  0
 27 28  1  0  0  0
 28 29  1  0  0  0
 29 30  1  0  0  0
 30 31  1  0  0  0
 31 32  1  0  0  0
  9  1  1  0  0  0
 32 28  1  0  0  0
  9  4  1  0  0  0
 15 10  1  0  0  0
 20 21  1  0  0  0
 24 25  1  0  0  0
M  END
> <minimizedAffinity>
-8.44106

> <CNNscore>
0.2083759457

> <CNNaffinity>
5.5302457809

> <CNN_VS>
1.1523702145

> <CNNaffinity_variance>
0.3362761140

$$$$
[H]OC(=O)C([H])(Oc1c([H])c([H])c(-c2noc([H])c3c(C(=O)C4([H])C([H])([H])C([H])([H])C([H])([H])C4([H])[H])c([H])c([H])c2-3)c([H])c1[H])C(=O)O[H]


 32 35  0  0  0  0  0  0  0  0999 V2000
  -86.2933   27.5759    1.3617 C   0  0  0  0  0  0  0  0  0  0  0  0
  -87.0917   26.6729    2.0310 C   0  0  0  0  0  0  0  0  0  0  0  0
  -88.2004   26.3212    1.2684 C   0  0  0  0  0  0  0  0  0  0  0  0
  -88.1245   27.0085    0.0773 C   0  0  0  0  0  0  0  0  0  0  0  0
  -88.8921   27.0899   -1.0650 C   0  0  0  0  0  0  0  0  0  0  0  0
  -88.5006   27.8941   -2.0771 N   0  0  0  0  0  0  0  0  0  0  0  0
  -87.4240   28.5898   -2.0014 O   0  0  0  0  0  0  0  0  0  0  0  0
  -86.6235   28.5874   -0.9649 C   0  0  0  0  0  0  0  0  0  0  0  0
  -86.9048   27.8051    0.1476 C   0  0  0  0  0  0  0  0  0  0  0  0
  -90.1203   26.3097   -1.1854 C   0  0  0  0  0  0  0  0  0  0  0  0
  -90.0737   25.0544   -1.7515 C   0  0  0  0  0  0  0  0  0  0  0  0
  -91.2128   24.2707   -1.8965 C   0  0  0  0  0  0  0  0  0  0  0  0
  -92.4335   24.7301   -1.4750 C   0  0  0  0  0  0  0  0  0  0  0  0
  -92.4915   26.0005   -0.9002 C   0  0  0  0  0  0  0  0  0  0  0  0
  -91.3577   26.7532   -0.7680 C   0  0  0  0  0  0  0  0  0  0  0  0
  -93.5885   24.0132   -1.5880 O   0  0  0  0  0  0  0  0  0  0  0  0
  -93.9709   22.8391   -0.9626 C   0  0  0  0  0  0  0  0  0  0  0  0
  -94.1011   23.0469    0.4894 C   0  0  0  0  0  0  0  0  0  0  0  0
  -95.2296   23.2698    1.0185 O   0  0  0  0  0  0  0  0  0  0  0  0
  -93.0230   23.0130    1.3373 O   0  0  0  0  0  0  0  0  0  0  0  0
  -92.6636   23.8511    1.7720 H   0  0  0  0  0  0  0  0  0  0  0  0
  -93.1621   21.6571   -1.3401 C   0  0  0  0  0  0  0  0  0  0  0  0
  -93.2034   21.2307   -2.5182 O   0  0  0  0  0  0  0  0  0  0  0  0
  -92.3707   21.0393   -0.3851 O   0  0  0  0  0  0  0  0  0  0  0  0
  -91.7177   20.3257   -0.6766 H   0  0  0  0  0  0  0  0  0  0  0  0
  -84.3729   27.6588    2.7167 O   0  0  0  0  0  0  0  0  0  0  0  0
  -85.0529   28.1968    1.8041 C   0  0  0  0  0  0  0  0  0  0  0  0
  -84.5059   29.4502    1.2535 C   0  0  0  0  0  0  0  0  0  0  0  0
  -85.1382   30.6934    1.7413 C   0  0  0  0  0  0  0  0  0  0  0  0
  -84.0701   31.7537    1.4465 C   0  0  0  0  0  0  0  0  0  0  0  0
  -82.7529   31.0511    1.4231 C   0  0  0  0  0  0  0  0  0  0  0  0
  -83.0489   29.5880    1.5616 C   0  0  0  0  0  0  0  0  0  0  0  0
 26 27  2  0  0  0
 27  1  1  0  0  0
  1  2  2  0  0  0
  2  3  1  0  0  0
  3  4  2  0  0  0
  4  5  1  0  0  0
  5 10  1  0  0  0
 10 11  2  0  0  0
 11 12  1  0  0  0
 12 13  2  0  0  0
 13 16  1  0  0  0
 16 17  1  0  0  0
 17 18  1  0  0  0
 18 19  2  0  0  0
 18 20  1  0  0  0
 17 22  1  0  0  0
 22 23  2  0  0  0
 22 24  1  0  0  0
 13 14  1  0  0  0
 14 15  2  0  0  0
  5  6  2  0  0  0
  6  7  1  0  0  0
  7  8  1  0  0  0
  8  9  2  0  0  0
 27 28  1  0  0  0
 28 29  1  0  0  0
 29 30  1  0  0  0
 30 31  1  0  0  0
 31 32  1  0  0  0
  9  1  1  0  0  0
 32 28  1  0  0  0
  9  4  1  0  0  0
 15 10  1  0  0  0
 20 21  1  0  0  0
 24 25  1  0  0  0
M  END
> <minimizedAffinity>
-8.25971

> <CNNscore>
0.1967236996

> <CNNaffinity>
5.5669040680

> <CNN_VS>
1.0951420069

> <CNNaffinity_variance>
0.1957024634

$$$$
[H]OC(=O)C([H])(Oc1c([H])c([H])c(-c2noc([H])c3c(C(=O)C4([H])C([H])([H])C([H])([H])C([H])([H])C4([H])[H])c([H])c([H])c2-3)c([H])c1[H])C(=O)O[H]


 32 35  0  0  0  0  0  0  0  0999 V2000
  -86.8440   30.2132   -0.2538 C   0  0  0  0  0  0  0  0  0  0  0  0
  -86.8068   31.5813   -0.0873 C   0  0  0  0  0  0  0  0  0  0  0  0
  -87.2322   32.2388   -1.2367 C   0  0  0  0  0  0  0  0  0  0  0  0
  -87.5535   31.2808   -2.1726 C   0  0  0  0  0  0  0  0  0  0  0  0
  -88.0231   31.2866   -3.4688 C   0  0  0  0  0  0  0  0  0  0  0  0
  -88.2365   30.1157   -4.1073 N   0  0  0  0  0  0  0  0  0  0  0  0
  -88.0111   28.9893   -3.5335 O   0  0  0  0  0  0  0  0  0  0  0  0
  -87.5650   28.8696   -2.3080 C   0  0  0  0  0  0  0  0  0  0  0  0
  -87.3024   29.9932   -1.5352 C   0  0  0  0  0  0  0  0  0  0  0  0
  -88.2931   32.5496   -4.1497 C   0  0  0  0  0  0  0  0  0  0  0  0
  -89.3787   32.6472   -4.9926 C   0  0  0  0  0  0  0  0  0  0  0  0
  -89.6794   33.8229   -5.6709 C   0  0  0  0  0  0  0  0  0  0  0  0
  -88.8936   34.9357   -5.5194 C   0  0  0  0  0  0  0  0  0  0  0  0
  -87.7915   34.8473   -4.6678 C   0  0  0  0  0  0  0  0  0  0  0  0
  -87.5155   33.6801   -4.0111 C   0  0  0  0  0  0  0  0  0  0  0  0
  -89.1321   36.1188   -6.1550 O   0  0  0  0  0  0  0  0  0  0  0  0
  -88.5151   37.3488   -6.0051 C   0  0  0  0  0  0  0  0  0  0  0  0
  -89.5194   38.4214   -5.9093 C   0  0  0  0  0  0  0  0  0  0  0  0
  -89.9763   38.9827   -6.9482 O   0  0  0  0  0  0  0  0  0  0  0  0
  -90.0075   38.8674   -4.7071 O   0  0  0  0  0  0  0  0  0  0  0  0
  -89.7591   39.7741   -4.3373 H   0  0  0  0  0  0  0  0  0  0  0  0
  -87.4338   37.6104   -6.9829 C   0  0  0  0  0  0  0  0  0  0  0  0
  -86.7938   36.6482   -7.4687 O   0  0  0  0  0  0  0  0  0  0  0  0
  -87.1450   38.9157   -7.3470 O   0  0  0  0  0  0  0  0  0  0  0  0
  -86.5075   39.0814   -8.1132 H   0  0  0  0  0  0  0  0  0  0  0  0
  -87.3760   28.5482    1.3196 O   0  0  0  0  0  0  0  0  0  0  0  0
  -86.4781   29.1707    0.6944 C   0  0  0  0  0  0  0  0  0  0  0  0
  -85.0923   28.7682    0.9965 C   0  0  0  0  0  0  0  0  0  0  0  0
  -84.1588   29.8706    1.3073 C   0  0  0  0  0  0  0  0  0  0  0  0
  -83.0339   29.1565    2.0666 C   0  0  0  0  0  0  0  0  0  0  0  0
  -83.6292   27.9304    2.6763 C   0  0  0  0  0  0  0  0  0  0  0  0
  -85.0391   27.8472    2.1736 C   0  0  0  0  0  0  0  0  0  0  0  0
 26 27  2  0  0  0
 27  1  1  0  0  0
  1  2  2  0  0  0
  2  3  1  0  0  0
  3  4  2  0  0  0
  4  5  1  0  0  0
  5 10  1  0  0  0
 10 11  2  0  0  0
 11 12  1  0  0  0
 12 13  2  0  0  0
 13 16  1  0  0  0
 16 17  1  0  0  0
 17 18  1  0  0  0
 18 19  2  0  0  0
 18 20  1  0  0  0
 17 22  1  0  0  0
 22 23  2  0  0  0
 22 24  1  0  0  0
 13 14  1  0  0  0
 14 15  2  0  0  0
  5  6  2  0  0  0
  6  7  1  0  0  0
  7  8  1  0  0  0
  8  9  2  0  0  0
 27 28  1  0  0  0
 28 29  1  0  0  0
 29 30  1  0  0  0
 30 31  1  0  0  0
 31 32  1  0  0  0
  9  1  1  0  0  0
 32 28  1  0  0  0
  9  4  1  0  0  0
 15 10  1  0  0  0
 20 21  1  0  0  0
 24 25  1  0  0  0
M  END
> <minimizedAffinity>
-8.76479

> <CNNscore>
0.1926353723

> <CNNaffinity>
5.4727277756

> <CNN_VS>
1.0542409420

> <CNNaffinity_variance>
0.2032812387

$$$$
[H]OC(=O)C([H])(Oc1c([H])c([H])c(-c2noc([H])c3c(C(=O)C4([H])C([H])([H])C([H])([H])C([H])([H])C4([H])[H])c([H])c([H])c2-3)c([H])c1[H])C(=O)O[H]


 32 35  0  0  0  0  0  0  0  0999 V2000
  -88.1765   28.0550    0.6611 C   0  0  0  0  0  0  0  0  0  0  0  0
  -89.1502   28.4274   -0.2411 C   0  0  0  0  0  0  0  0  0  0  0  0
  -88.8785   29.6780   -0.7857 C   0  0  0  0  0  0  0  0  0  0  0  0
  -87.7040   30.1315   -0.2275 C   0  0  0  0  0  0  0  0  0  0  0  0
  -86.9265   31.2635   -0.3498 C   0  0  0  0  0  0  0  0  0  0  0  0
  -85.7928   31.3770    0.3758 N   0  0  0  0  0  0  0  0  0  0  0  0
  -85.4187   30.4507    1.1826 O   0  0  0  0  0  0  0  0  0  0  0  0
  -86.0810   29.3374    1.3749 C   0  0  0  0  0  0  0  0  0  0  0  0
  -87.2652   29.0889    0.6931 C   0  0  0  0  0  0  0  0  0  0  0  0
  -87.3209   32.3343   -1.2605 C   0  0  0  0  0  0  0  0  0  0  0  0
  -86.3503   33.0479   -1.9292 C   0  0  0  0  0  0  0  0  0  0  0  0
  -86.6686   34.0811   -2.8032 C   0  0  0  0  0  0  0  0  0  0  0  0
  -87.9759   34.4258   -3.0288 C   0  0  0  0  0  0  0  0  0  0  0  0
  -88.9667   33.7090   -2.3563 C   0  0  0  0  0  0  0  0  0  0  0  0
  -88.6296   32.6966   -1.5013 C   0  0  0  0  0  0  0  0  0  0  0  0
  -88.3562   35.4282   -3.8721 O   0  0  0  0  0  0  0  0  0  0  0  0
  -88.3792   35.4653   -5.2556 C   0  0  0  0  0  0  0  0  0  0  0  0
  -87.2821   36.3036   -5.7673 C   0  0  0  0  0  0  0  0  0  0  0  0
  -86.5664   36.9930   -4.9826 O   0  0  0  0  0  0  0  0  0  0  0  0
  -86.9796   36.3851   -7.1031 O   0  0  0  0  0  0  0  0  0  0  0  0
  -87.1751   37.2173   -7.6414 H   0  0  0  0  0  0  0  0  0  0  0  0
  -89.7066   35.7770   -5.8341 C   0  0  0  0  0  0  0  0  0  0  0  0
  -90.6286   36.1773   -5.0849 O   0  0  0  0  0  0  0  0  0  0  0  0
  -89.9104   35.6218   -7.1958 O   0  0  0  0  0  0  0  0  0  0  0  0
  -90.7671   35.9664   -7.6057 H   0  0  0  0  0  0  0  0  0  0  0  0
  -87.4840   25.8312    0.9869 O   0  0  0  0  0  0  0  0  0  0  0  0
  -88.0858   26.8350    1.4505 C   0  0  0  0  0  0  0  0  0  0  0  0
  -88.6620   26.6693    2.7974 C   0  0  0  0  0  0  0  0  0  0  0  0
  -89.4807   27.7978    3.2868 C   0  0  0  0  0  0  0  0  0  0  0  0
  -90.3323   27.1467    4.3834 C   0  0  0  0  0  0  0  0  0  0  0  0
  -90.4343   25.6945    4.0517 C   0  0  0  0  0  0  0  0  0  0  0  0
  -89.5480   25.4663    2.8643 C   0  0  0  0  0  0  0  0  0  0  0  0
 26 27  2  0  0  0
 27  1  1  0  0  0
  1  2  2  0  0  0
  2  3  1  0  0  0
  3  4  2  0  0  0
  4  5  1  0  0  0
  5 10  1  0  0  0
 10 11  2  0  0  0
 11 12  1  0  0  0
 12 13  2  0  0  0
 13 16  1  0  0  0
 16 17  1  0  0  0
 17 18  1  0  0  0
 18 19  2  0  0  0
 18 20  1  0  0  0
 17 22  1  0  0  0
 22 23  2  0  0  0
 22 24  1  0  0  0
 13 14  1  0  0  0
 14 15  2  0  0  0
  5  6  2  0  0  0
  6  7  1  0  0  0
  7  8  1  0  0  0
  8  9  2  0  0  0
 27 28  1  0  0  0
 28 29  1  0  0  0
 29 30  1  0  0  0
 30 31  1  0  0  0
 31 32  1  0  0  0
  9  1  1  0  0  0
 32 28  1  0  0  0
  9  4  1  0  0  0
 15 10  1  0  0  0
 20 21  1  0  0  0
 24 25  1  0  0  0
M  END
> <minimizedAffinity>
-7.86656

> <CNNscore>
0.1910023987

> <CNNaffinity>
5.6070704460

> <CNN_VS>
1.0709638596

> <CNNaffinity_variance>
0.0892699510

$$$$
[H]OC(=O)C([H])(Oc1c([H])c([H])c(-c2noc([H])c3c(C(=O)C4([H])C([H])([H])C([H])([H])C([H])([H])C4([H])[H])c([H])c([H])c2-3)c([H])c1[H])C(=O)O[H]


 32 35  0  0  0  0  0  0  0  0999 V2000
  -89.6920   32.8328   -3.3293 C   0  0  0  0  0  0  0  0  0  0  0  0
  -90.6988   31.9022   -3.4745 C   0  0  0  0  0  0  0  0  0  0  0  0
  -90.6022   30.9034   -2.5113 C   0  0  0  0  0  0  0  0  0  0  0  0
  -89.5102   31.1875   -1.7216 C   0  0  0  0  0  0  0  0  0  0  0  0
  -88.9029   30.6024   -0.6309 C   0  0  0  0  0  0  0  0  0  0  0  0
  -87.8080   31.1773   -0.0876 N   0  0  0  0  0  0  0  0  0  0  0  0
  -87.3148   32.2625   -0.5652 O   0  0  0  0  0  0  0  0  0  0  0  0
  -87.8114   32.8994   -1.5961 C   0  0  0  0  0  0  0  0  0  0  0  0
  -88.9377   32.4196   -2.2520 C   0  0  0  0  0  0  0  0  0  0  0  0
  -89.4397   29.3702   -0.0607 C   0  0  0  0  0  0  0  0  0  0  0  0
  -90.4911   29.4354    0.8273 C   0  0  0  0  0  0  0  0  0  0  0  0
  -91.0373   28.2948    1.4048 C   0  0  0  0  0  0  0  0  0  0  0  0
  -90.5389   27.0539    1.1040 C   0  0  0  0  0  0  0  0  0  0  0  0
  -89.4737   26.9770    0.2055 C   0  0  0  0  0  0  0  0  0  0  0  0
  -88.9529   28.1126   -0.3500 C   0  0  0  0  0  0  0  0  0  0  0  0
  -91.0277   25.8964    1.6350 O   0  0  0  0  0  0  0  0  0  0  0  0
  -90.4797   25.0540    2.5868 C   0  0  0  0  0  0  0  0  0  0  0  0
  -91.2453   23.7987    2.6667 C   0  0  0  0  0  0  0  0  0  0  0  0
  -91.4204   23.0744    1.6429 O   0  0  0  0  0  0  0  0  0  0  0  0
  -91.8051   23.3512    3.8366 O   0  0  0  0  0  0  0  0  0  0  0  0
  -92.8041   23.3657    3.9861 H   0  0  0  0  0  0  0  0  0  0  0  0
  -90.2257   25.6984    3.8960 C   0  0  0  0  0  0  0  0  0  0  0  0
  -89.0569   26.0303    4.2049 O   0  0  0  0  0  0  0  0  0  0  0  0
  -91.2840   25.9255    4.7610 O   0  0  0  0  0  0  0  0  0  0  0  0
  -91.1307   26.4877    5.5863 H   0  0  0  0  0  0  0  0  0  0  0  0
  -89.0988   33.9054   -5.3365 O   0  0  0  0  0  0  0  0  0  0  0  0
  -89.4297   34.0219   -4.1275 C   0  0  0  0  0  0  0  0  0  0  0  0
  -89.5213   35.4030   -3.6200 C   0  0  0  0  0  0  0  0  0  0  0  0
  -88.4746   36.3308   -4.0963 C   0  0  0  0  0  0  0  0  0  0  0  0
  -89.1119   37.7064   -3.8650 C   0  0  0  0  0  0  0  0  0  0  0  0
  -90.5919   37.5113   -3.8912 C   0  0  0  0  0  0  0  0  0  0  0  0
  -90.8242   36.0339   -3.9955 C   0  0  0  0  0  0  0  0  0  0  0  0
 26 27  2  0  0  0
 27  1  1  0  0  0
  1  2  2  0  0  0
  2  3  1  0  0  0
  3  4  2  0  0  0
  4  5  1  0  0  0
  5 10  1  0  0  0
 10 11  2  0  0  0
 11 12  1  0  0  0
 12 13  2  0  0  0
 13 16  1  0  0  0
 16 17  1  0  0  0
 17 18  1  0  0  0
 18 19  2  0  0  0
 18 20  1  0  0  0
 17 22  1  0  0  0
 22 23  2  0  0  0
 22 24  1  0  0  0
 13 14  1  0  0  0
 14 15  2  0  0  0
  5  6  2  0  0  0
  6  7  1  0  0  0
  7  8  1  0  0  0
  8  9  2  0  0  0
 27 28  1  0  0  0
 28 29  1  0  0  0
 29 30  1  0  0  0
 30 31  1  0  0  0
 31 32  1  0  0  0
  9  1  1  0  0  0
 32 28  1  0  0  0
  9  4  1  0  0  0
 15 10  1  0  0  0
 20 21  1  0  0  0
 24 25  1  0  0  0
M  END
> <minimizedAffinity>
-7.30856

> <CNNscore>
0.1662543267

> <CNNaffinity>
5.4232430458

> <CNN_VS>
0.9016376138

> <CNNaffinity_variance>
0.1471225321

$$$$
[H]OC(=O)C([H])(Oc1c([H])c([H])c(-c2noc([H])c3c(C(=O)C4([H])C([H])([H])C([H])([H])C([H])([H])C4([H])[H])c([H])c([H])c2-3)c([H])c1[H])C(=O)O[H]


 32 35  0  0  0  0  0  0  0  0999 V2000
  -85.6161   31.0452    0.8809 C   0  0  0  0  0  0  0  0  0  0  0  0
  -86.8093   30.3718    0.7269 C   0  0  0  0  0  0  0  0  0  0  0  0
  -87.5013   30.8253   -0.3911 C   0  0  0  0  0  0  0  0  0  0  0  0
  -86.7448   31.8150   -0.9788 C   0  0  0  0  0  0  0  0  0  0  0  0
  -86.8741   32.6310   -2.0824 C   0  0  0  0  0  0  0  0  0  0  0  0
  -85.8997   33.5198   -2.3740 N   0  0  0  0  0  0  0  0  0  0  0  0
  -84.8488   33.6247   -1.6437 O   0  0  0  0  0  0  0  0  0  0  0  0
  -84.6257   32.9007   -0.5755 C   0  0  0  0  0  0  0  0  0  0  0  0
  -85.5453   31.9467   -0.1597 C   0  0  0  0  0  0  0  0  0  0  0  0
  -88.0547   32.5354   -2.9361 C   0  0  0  0  0  0  0  0  0  0  0  0
  -88.0270   31.7149   -4.0426 C   0  0  0  0  0  0  0  0  0  0  0  0
  -89.1197   31.5903   -4.8929 C   0  0  0  0  0  0  0  0  0  0  0  0
  -90.2735   32.2902   -4.6527 C   0  0  0  0  0  0  0  0  0  0  0  0
  -90.3119   33.1243   -3.5344 C   0  0  0  0  0  0  0  0  0  0  0  0
  -89.2245   33.2307   -2.7122 C   0  0  0  0  0  0  0  0  0  0  0  0
  -91.3803   32.2140   -5.4464 O   0  0  0  0  0  0  0  0  0  0  0  0
  -92.5169   31.4352   -5.3146 C   0  0  0  0  0  0  0  0  0  0  0  0
  -93.4342   32.0247   -4.3250 C   0  0  0  0  0  0  0  0  0  0  0  0
  -93.7577   31.3924   -3.2767 O   0  0  0  0  0  0  0  0  0  0  0  0
  -93.9830   33.2723   -4.4817 O   0  0  0  0  0  0  0  0  0  0  0  0
  -94.9620   33.3978   -4.6974 H   0  0  0  0  0  0  0  0  0  0  0  0
  -92.2464   29.9929   -5.1131 C   0  0  0  0  0  0  0  0  0  0  0  0
  -91.9839   29.5682   -3.9632 O   0  0  0  0  0  0  0  0  0  0  0  0
  -92.2874   29.1333   -6.1990 O   0  0  0  0  0  0  0  0  0  0  0  0
  -92.2418   28.1370   -6.0376 H   0  0  0  0  0  0  0  0  0  0  0  0
  -83.9732   31.8845    2.3394 O   0  0  0  0  0  0  0  0  0  0  0  0
  -84.6059   30.8817    1.9165 C   0  0  0  0  0  0  0  0  0  0  0  0
  -84.2471   29.5921    2.5343 C   0  0  0  0  0  0  0  0  0  0  0  0
  -85.1209   28.4517    2.1891 C   0  0  0  0  0  0  0  0  0  0  0  0
  -84.2356   27.2400    2.5053 C   0  0  0  0  0  0  0  0  0  0  0  0
  -82.8179   27.6943    2.3918 C   0  0  0  0  0  0  0  0  0  0  0  0
  -82.8633   29.1734    2.1516 C   0  0  0  0  0  0  0  0  0  0  0  0
 26 27  2  0  0  0
 27  1  1  0  0  0
  1  2  2  0  0  0
  2  3  1  0  0  0
  3  4  2  0  0  0
  4  5  1  0  0  0
  5 10  1  0  0  0
 10 11  2  0  0  0
 11 12  1  0  0  0
 12 13  2  0  0  0
 13 16  1  0  0  0
 16 17  1  0  0  0
 17 18  1  0  0  0
 18 19  2  0  0  0
 18 20  1  0  0  0
 17 22  1  0  0  0
 22 23  2  0  0  0
 22 24  1  0  0  0
 13 14  1  0  0  0
 14 15  2  0  0  0
  5  6  2  0  0  0
  6  7  1  0  0  0
  7  8  1  0  0  0
  8  9  2  0  0  0
 27 28  1  0  0  0
 28 29  1  0  0  0
 29 30  1  0  0  0
 30 31  1  0  0  0
 31 32  1  0  0  0
  9  1  1  0  0  0
 32 28  1  0  0  0
  9  4  1  0  0  0
 15 10  1  0  0  0
 20 21  1  0  0  0
 24 25  1  0  0  0
M  END
> <minimizedAffinity>
-8.43825

> <CNNscore>
0.1594119221

> <CNNaffinity>
5.5998806953

> <CNN_VS>
0.8926877379

> <CNNaffinity_variance>
0.3747657835

$$$$
[H]OC(=O)C([H])(Oc1c([H])c([H])c(-c2noc([H])c3c(C(=O)C4([H])C([H])([H])C([H])([H])C([H])([H])C4([H])[H])c([H])c([H])c2-3)c([H])c1[H])C(=O)O[H]


 32 35  0  0  0  0  0  0  0  0999 V2000
  -85.5287   31.6737    0.6731 C   0  0  0  0  0  0  0  0  0  0  0  0
  -85.1558   32.8650    0.0878 C   0  0  0  0  0  0  0  0  0  0  0  0
  -86.0106   33.2004   -0.9569 C   0  0  0  0  0  0  0  0  0  0  0  0
  -86.9605   32.2080   -1.0558 C   0  0  0  0  0  0  0  0  0  0  0  0
  -88.0513   31.9639   -1.8628 C   0  0  0  0  0  0  0  0  0  0  0  0
  -88.7898   30.8497   -1.6688 N   0  0  0  0  0  0  0  0  0  0  0  0
  -88.4991   30.0060   -0.7454 O   0  0  0  0  0  0  0  0  0  0  0  0
  -87.4871   30.1401    0.0749 C   0  0  0  0  0  0  0  0  0  0  0  0
  -86.6437   31.2401   -0.0119 C   0  0  0  0  0  0  0  0  0  0  0  0
  -88.4119   32.9041   -2.9200 C   0  0  0  0  0  0  0  0  0  0  0  0
  -89.0786   34.0656   -2.5963 C   0  0  0  0  0  0  0  0  0  0  0  0
  -89.4513   34.9929   -3.5627 C   0  0  0  0  0  0  0  0  0  0  0  0
  -89.1629   34.7761   -4.8851 C   0  0  0  0  0  0  0  0  0  0  0  0
  -88.4878   33.6024   -5.2235 C   0  0  0  0  0  0  0  0  0  0  0  0
  -88.1312   32.7050   -4.2555 C   0  0  0  0  0  0  0  0  0  0  0  0
  -89.5002   35.6438   -5.8821 O   0  0  0  0  0  0  0  0  0  0  0  0
  -88.9245   36.8495   -6.2439 C   0  0  0  0  0  0  0  0  0  0  0  0
  -87.4577   36.7279   -6.2883 C   0  0  0  0  0  0  0  0  0  0  0  0
  -86.8558   36.4784   -7.3739 O   0  0  0  0  0  0  0  0  0  0  0  0
  -86.6730   36.8741   -5.1724 O   0  0  0  0  0  0  0  0  0  0  0  0
  -86.2081   36.0861   -4.7439 H   0  0  0  0  0  0  0  0  0  0  0  0
  -89.4175   38.0147   -5.4737 C   0  0  0  0  0  0  0  0  0  0  0  0
  -90.4105   38.6559   -5.8911 O   0  0  0  0  0  0  0  0  0  0  0  0
  -88.7738   38.3794   -4.3022 O   0  0  0  0  0  0  0  0  0  0  0  0
  -89.1941   39.0819   -3.7101 H   0  0  0  0  0  0  0  0  0  0  0  0
  -84.9406   31.4657    2.9407 O   0  0  0  0  0  0  0  0  0  0  0  0
  -84.9032   30.9704    1.7840 C   0  0  0  0  0  0  0  0  0  0  0  0
  -84.2023   29.6790    1.6638 C   0  0  0  0  0  0  0  0  0  0  0  0
  -82.7325   29.7327    1.8051 C   0  0  0  0  0  0  0  0  0  0  0  0
  -82.3748   28.2860    2.1669 C   0  0  0  0  0  0  0  0  0  0  0  0
  -83.5829   27.6849    2.8060 C   0  0  0  0  0  0  0  0  0  0  0  0
  -84.6741   28.7072    2.6981 C   0  0  0  0  0  0  0  0  0  0  0  0
 26 27  2  0  0  0
 27  1  1  0  0  0
  1  2  2  0  0  0
  2  3  1  0  0  0
  3  4  2  0  0  0
  4  5  1  0  0  0
  5 10  1  0  0  0
 10 11  2  0  0  0
 11 12  1  0  0  0
 12 13  2  0  0  0
 13 16  1  0  0  0
 16 17  1  0  0  0
 17 18  1  0  0  0
 18 19  2  0  0  0
 18 20  1  0  0  0
 17 22  1  0  0  0
 22 23  2  0  0  0
 22 24  1  0  0  0
 13 14  1  0  0  0
 14 15  2  0  0  0
  5  6  2  0  0  0
  6  7  1  0  0  0
  7  8  1  0  0  0
  8  9  2  0  0  0
 27 28  1  0  0  0
 28 29  1  0  0  0
 29 30  1  0  0  0
 30 31  1  0  0  0
 31 32  1  0  0  0
  9  1  1  0  0  0
 32 28  1  0  0  0
  9  4  1  0  0  0
 15 10  1  0  0  0
 20 21  1  0  0  0
 24 25  1  0  0  0
M  END
> <minimizedAffinity>
-9.05618

> <CNNscore>
0.1584134698

> <CNNaffinity>
5.2532997131

> <CNN_VS>
0.8321934342

> <CNNaffinity_variance>
0.2358030081

$$$$
[H]c1c(OC([H])([H])[H])c([H])c2c3nnc(SC([H])([H])[H])nc3n(C([H])([H])[H])c2c1[H]


 18 20  0  0  0  0  0  0  0  0999 V2000
  -87.9606   35.0382   -3.1354 C   0  0  0  0  0  0  0  0  0  0  0  0
  -89.1799   34.3991   -3.0632 C   0  0  0  0  0  0  0  0  0  0  0  0
  -89.2932   33.2478   -2.2817 C   0  0  0  0  0  0  0  0  0  0  0  0
  -88.2134   32.7318   -1.5779 C   0  0  0  0  0  0  0  0  0  0  0  0
  -87.0041   33.3827   -1.6616 C   0  0  0  0  0  0  0  0  0  0  0  0
  -86.8836   34.5341   -2.4408 C   0  0  0  0  0  0  0  0  0  0  0  0
  -86.1001   32.6908   -0.8874 C   0  0  0  0  0  0  0  0  0  0  0  0
  -84.8000   32.9086   -0.6349 N   0  0  0  0  0  0  0  0  0  0  0  0
  -84.1468   32.0783    0.1600 N   0  0  0  0  0  0  0  0  0  0  0  0
  -84.8093   31.0456    0.6861 C   0  0  0  0  0  0  0  0  0  0  0  0
  -86.1080   30.7964    0.4560 N   0  0  0  0  0  0  0  0  0  0  0  0
  -86.8101   31.6263   -0.3536 C   0  0  0  0  0  0  0  0  0  0  0  0
  -88.0878   31.6501   -0.7704 N   0  0  0  0  0  0  0  0  0  0  0  0
  -89.1381   30.6882   -0.4167 C   0  0  0  0  0  0  0  0  0  0  0  0
  -87.0414   36.2650   -5.0693 C   0  0  0  0  0  0  0  0  0  0  0  0
  -87.7847   36.1814   -3.8914 O   0  0  0  0  0  0  0  0  0  0  0  0
  -83.8944   29.9403    1.7570 S   0  0  0  0  0  0  0  0  0  0  0  0
  -85.0246   29.2703    3.0207 C   0  0  0  0  0  0  0  0  0  0  0  0
 15 16  1  0  0  0
 16  1  1  0  0  0
  1  2  2  0  0  0
  2  3  1  0  0  0
  3  4  2  0  0  0
  4  5  1  0  0  0
  5  6  2  0  0  0
  5  7  1  0  0  0
  7  8  2  0  0  0
  8  9  1  0  0  0
  9 10  2  0  0  0
 10 17  1  0  0  0
 17 18  1  0  0  0
 10 11  1  0  0  0
 11 12  2  0  0  0
 12 13  1  0  0  0
 13 14  1  0  0  0
  6  1  1  0  0  0
 12  7  1  0  0  0
 13  4  1  0  0  0
M  END
> <minimizedAffinity>
-6.21408

> <CNNscore>
0.8421276808

> <CNNaffinity>
5.4873714447

> <CNN_VS>
4.6210675240

> <CNNaffinity_variance>
0.1429169625

$$$$
[H]c1c(OC([H])([H])[H])c([H])c2c3nnc(SC([H])([H])[H])nc3n(C([H])([H])[H])c2c1[H]


 18 20  0  0  0  0  0  0  0  0999 V2000
  -84.8657   28.6785    1.7595 C   0  0  0  0  0  0  0  0  0  0  0  0
  -83.6184   29.2504    1.8931 C   0  0  0  0  0  0  0  0  0  0  0  0
  -83.3688   30.4773    1.2754 C   0  0  0  0  0  0  0  0  0  0  0  0
  -84.3408   31.1341    0.5329 C   0  0  0  0  0  0  0  0  0  0  0  0
  -85.5799   30.5487    0.4102 C   0  0  0  0  0  0  0  0  0  0  0  0
  -85.8366   29.3224    1.0249 C   0  0  0  0  0  0  0  0  0  0  0  0
  -86.3620   31.3784   -0.3612 C   0  0  0  0  0  0  0  0  0  0  0  0
  -87.6354   31.2676   -0.7710 N   0  0  0  0  0  0  0  0  0  0  0  0
  -88.1604   32.2233   -1.5187 N   0  0  0  0  0  0  0  0  0  0  0  0
  -87.3989   33.2712   -1.8414 C   0  0  0  0  0  0  0  0  0  0  0  0
  -86.1230   33.4156   -1.4504 N   0  0  0  0  0  0  0  0  0  0  0  0
  -85.5512   32.4561   -0.6827 C   0  0  0  0  0  0  0  0  0  0  0  0
  -84.3290   32.3094   -0.1427 N   0  0  0  0  0  0  0  0  0  0  0  0
  -83.2040   33.2437   -0.2651 C   0  0  0  0  0  0  0  0  0  0  0  0
  -86.2057   26.6151    1.9487 C   0  0  0  0  0  0  0  0  0  0  0  0
  -85.1744   27.4664    2.3466 O   0  0  0  0  0  0  0  0  0  0  0  0
  -88.1409   34.5463   -2.8559 S   0  0  0  0  0  0  0  0  0  0  0  0
  -88.0370   34.0458   -4.6057 C   0  0  0  0  0  0  0  0  0  0  0  0
 15 16  1  0  0  0
 16  1  1  0  0  0
  1  2  2  0  0  0
  2  3  1  0  0  0
  3  4  2  0  0  0
  4  5  1  0  0  0
  5  6  2  0  0  0
  5  7  1  0  0  0
  7  8  2  0  0  0
  8  9  1  0  0  0
  9 10  2  0  0  0
 10 17  1  0  0  0
 17 18  1  0  0  0
 10 11  1  0  0  0
 11 12  2  0  0  0
 12 13  1  0  0  0
 13 14  1  0  0  0
  6  1  1  0  0  0
 12  7  1  0  0  0
 13  4  1  0  0  0
M  END
> <minimizedAffinity>
-6.98174

> <CNNscore>
0.7167798877

> <CNNaffinity>
5.8159561157

> <CNN_VS>
4.1687602997

> <CNNaffinity_variance>
0.1791381240

$$$$
[H]c1c(OC([H])([H])[H])c([H])c2c3nnc(SC([H])([H])[H])nc3n(C([H])([H])[H])c2c1[H]


 18 20  0  0  0  0  0  0  0  0999 V2000
  -87.3975   34.1771   -3.8335 C   0  0  0  0  0  0  0  0  0  0  0  0
  -88.2405   33.2307   -4.3759 C   0  0  0  0  0  0  0  0  0  0  0  0
  -88.3880   32.0052   -3.7236 C   0  0  0  0  0  0  0  0  0  0  0  0
  -87.7100   31.7161   -2.5470 C   0  0  0  0  0  0  0  0  0  0  0  0
  -86.8729   32.6724   -2.0201 C   0  0  0  0  0  0  0  0  0  0  0  0
  -86.7206   33.8997   -2.6667 C   0  0  0  0  0  0  0  0  0  0  0  0
  -86.3221   32.1595   -0.8674 C   0  0  0  0  0  0  0  0  0  0  0  0
  -85.4528   32.6855    0.0097 N   0  0  0  0  0  0  0  0  0  0  0  0
  -85.0763   31.9706    1.0562 N   0  0  0  0  0  0  0  0  0  0  0  0
  -85.5780   30.7422    1.2030 C   0  0  0  0  0  0  0  0  0  0  0  0
  -86.4481   30.1839    0.3469 N   0  0  0  0  0  0  0  0  0  0  0  0
  -86.8570   30.8871   -0.7372 C   0  0  0  0  0  0  0  0  0  0  0  0
  -87.6963   30.6179   -1.7521 N   0  0  0  0  0  0  0  0  0  0  0  0
  -88.4483   29.3743   -1.9550 C   0  0  0  0  0  0  0  0  0  0  0  0
  -87.5566   36.6393   -3.8735 C   0  0  0  0  0  0  0  0  0  0  0  0
  -87.2094   35.4085   -4.4315 O   0  0  0  0  0  0  0  0  0  0  0  0
  -85.0462   29.8011    2.6302 S   0  0  0  0  0  0  0  0  0  0  0  0
  -84.9191   28.0428    2.1661 C   0  0  0  0  0  0  0  0  0  0  0  0
 15 16  1  0  0  0
 16  1  1  0  0  0
  1  2  2  0  0  0
  2  3  1  0  0  0
  3  4  2  0  0  0
  4  5  1  0  0  0
  5  6  2  0  0  0
  5  7  1  0  0  0
  7  8  2  0  0  0
  8  9  1  0  0  0
  9 10  2  0  0  0
 10 17  1  0  0  0
 17 18  1  0  0  0
 10 11  1  0  0  0
 11 12  2  0  0  0
 12 13  1  0  0  0
 13 14  1  0  0  0
  6  1  1  0  0  0
 12  7  1  0  0  0
 13  4  1  0  0  0
M  END
> <minimizedAffinity>
-5.86726

> <CNNscore>
0.5215193629

> <CNNaffinity>
5.2048726082

> <CNN_VS>
2.7144417763

> <CNNaffinity_variance>
0.1762401164

$$$$
[H]c1c(OC([H])([H])[H])c([H])c2c3nnc(SC([H])([H])[H])nc3n(C([H])([H])[H])c2c1[H]


 18 20  0  0  0  0  0  0  0  0999 V2000
  -88.5926   32.8657   -2.3849 C   0  0  0  0  0  0  0  0  0  0  0  0
  -87.6501   33.8548   -2.5692 C   0  0  0  0  0  0  0  0  0  0  0  0
  -86.4128   33.7350   -1.9336 C   0  0  0  0  0  0  0  0  0  0  0  0
  -86.1082   32.6493   -1.1238 C   0  0  0  0  0  0  0  0  0  0  0  0
  -87.0608   31.6716   -0.9512 C   0  0  0  0  0  0  0  0  0  0  0  0
  -88.2997   31.7847   -1.5835 C   0  0  0  0  0  0  0  0  0  0  0  0
  -86.5316   30.7119   -0.1180 C   0  0  0  0  0  0  0  0  0  0  0  0
  -87.0480   29.5670    0.3555 N   0  0  0  0  0  0  0  0  0  0  0  0
  -86.3170   28.8088    1.1547 N   0  0  0  0  0  0  0  0  0  0  0  0
  -85.0828   29.2130    1.4642 C   0  0  0  0  0  0  0  0  0  0  0  0
  -84.5341   30.3507    1.0102 N   0  0  0  0  0  0  0  0  0  0  0  0
  -85.2535   31.1533    0.1884 C   0  0  0  0  0  0  0  0  0  0  0  0
  -84.9964   32.3245   -0.4191 N   0  0  0  0  0  0  0  0  0  0  0  0
  -83.7519   33.0970   -0.3319 C   0  0  0  0  0  0  0  0  0  0  0  0
  -90.7307   31.8631   -3.1007 C   0  0  0  0  0  0  0  0  0  0  0  0
  -89.8350   32.9267   -2.9866 O   0  0  0  0  0  0  0  0  0  0  0  0
  -84.1209   28.1632    2.5496 S   0  0  0  0  0  0  0  0  0  0  0  0
  -82.3487   28.4548    2.2373 C   0  0  0  0  0  0  0  0  0  0  0  0
 15 16  1  0  0  0
 16  1  1  0  0  0
  1  2  2  0  0  0
  2  3  1  0  0  0
  3  4  2  0  0  0
  4  5  1  0  0  0
  5  6  2  0  0  0
  5  7  1  0  0  0
  7  8  2  0  0  0
  8  9  1  0  0  0
  9 10  2  0  0  0
 10 17  1  0  0  0
 17 18  1  0  0  0
 10 11  1  0  0  0
 11 12  2  0  0  0
 12 13  1  0  0  0
 13 14  1  0  0  0
  6  1  1  0  0  0
 12  7  1  0  0  0
 13  4  1  0  0  0
M  END
> <minimizedAffinity>
-5.97816

> <CNNscore>
0.5180150270

> <CNNaffinity>
5.4623756409

> <CNN_VS>
2.8295927048

> <CNNaffinity_variance>
0.1763083488

$$$$
[H]c1c(OC([H])([H])[H])c([H])c2c3nnc(SC([H])([H])[H])nc3n(C([H])([H])[H])c2c1[H]


 18 20  0  0  0  0  0  0  0  0999 V2000
  -83.9132   31.8832    0.0974 C   0  0  0  0  0  0  0  0  0  0  0  0
  -82.8139   31.3948    0.7709 C   0  0  0  0  0  0  0  0  0  0  0  0
  -82.9261   30.1844    1.4575 C   0  0  0  0  0  0  0  0  0  0  0  0
  -84.1118   29.4625    1.4796 C   0  0  0  0  0  0  0  0  0  0  0  0
  -85.1986   29.9651    0.8019 C   0  0  0  0  0  0  0  0  0  0  0  0
  -85.0938   31.1744    0.1133 C   0  0  0  0  0  0  0  0  0  0  0  0
  -86.2423   29.0829    0.9686 C   0  0  0  0  0  0  0  0  0  0  0  0
  -87.5054   29.1086    0.5152 N   0  0  0  0  0  0  0  0  0  0  0  0
  -88.3244   28.1177    0.8241 N   0  0  0  0  0  0  0  0  0  0  0  0
  -87.8617   27.1205    1.5815 C   0  0  0  0  0  0  0  0  0  0  0  0
  -86.6061   27.0615    2.0525 N   0  0  0  0  0  0  0  0  0  0  0  0
  -85.7381   28.0594    1.7562 C   0  0  0  0  0  0  0  0  0  0  0  0
  -84.4501   28.2878    2.0657 N   0  0  0  0  0  0  0  0  0  0  0  0
  -83.5839   27.4286    2.8811 C   0  0  0  0  0  0  0  0  0  0  0  0
  -84.8878   33.5830   -1.4027 C   0  0  0  0  0  0  0  0  0  0  0  0
  -83.8656   33.0749   -0.6004 O   0  0  0  0  0  0  0  0  0  0  0  0
  -88.9974   25.7956    1.9817 S   0  0  0  0  0  0  0  0  0  0  0  0
  -89.7113   25.1412    0.4373 C   0  0  0  0  0  0  0  0  0  0  0  0
 15 16  1  0  0  0
 16  1  1  0  0  0
  1  2  2  0  0  0
  2  3  1  0  0  0
  3  4  2  0  0  0
  4  5  1  0  0  0
  5  6  2  0  0  0
  5  7  1  0  0  0
  7  8  2  0  0  0
  8  9  1  0  0  0
  9 10  2  0  0  0
 10 17  1  0  0  0
 17 18  1  0  0  0
 10 11  1  0  0  0
 11 12  2  0  0  0
 12 13  1  0  0  0
 13 14  1  0  0  0
  6  1  1  0  0  0
 12  7  1  0  0  0
 13  4  1  0  0  0
M  END
> <minimizedAffinity>
-6.83746

> <CNNscore>
0.4998447895

> <CNNaffinity>
5.7280111313

> <CNN_VS>
2.8631165028

> <CNNaffinity_variance>
0.1804166138

$$$$
[H]c1c(OC([H])([H])[H])c([H])c2c3nnc(SC([H])([H])[H])nc3n(C([H])([H])[H])c2c1[H]


 18 20  0  0  0  0  0  0  0  0999 V2000
  -88.5035   33.5438   -2.0788 C   0  0  0  0  0  0  0  0  0  0  0  0
  -89.5264   32.6304   -1.9379 C   0  0  0  0  0  0  0  0  0  0  0  0
  -89.2803   31.4428   -1.2464 C   0  0  0  0  0  0  0  0  0  0  0  0
  -88.0364   31.1589   -0.6990 C   0  0  0  0  0  0  0  0  0  0  0  0
  -87.0272   32.0819   -0.8493 C   0  0  0  0  0  0  0  0  0  0  0  0
  -87.2661   33.2713   -1.5392 C   0  0  0  0  0  0  0  0  0  0  0  0
  -85.9046   31.5817   -0.2290 C   0  0  0  0  0  0  0  0  0  0  0  0
  -84.6690   32.0873   -0.0907 N   0  0  0  0  0  0  0  0  0  0  0  0
  -83.7545   31.3921    0.5638 N   0  0  0  0  0  0  0  0  0  0  0  0
  -84.0961   30.2036    1.0667 C   0  0  0  0  0  0  0  0  0  0  0  0
  -85.3205   29.6667    0.9478 N   0  0  0  0  0  0  0  0  0  0  0  0
  -86.2839   30.3506    0.2836 C   0  0  0  0  0  0  0  0  0  0  0  0
  -87.5725   30.0940    0.0001 N   0  0  0  0  0  0  0  0  0  0  0  0
  -88.3252   28.8919    0.3765 C   0  0  0  0  0  0  0  0  0  0  0  0
  -87.6669   35.5138   -3.3069 C   0  0  0  0  0  0  0  0  0  0  0  0
  -88.6842   34.7369   -2.7518 O   0  0  0  0  0  0  0  0  0  0  0  0
  -82.8333   29.2883    1.9461 S   0  0  0  0  0  0  0  0  0  0  0  0
  -83.5874   27.8045    2.6896 C   0  0  0  0  0  0  0  0  0  0  0  0
 15 16  1  0  0  0
 16  1  1  0  0  0
  1  2  2  0  0  0
  2  3  1  0  0  0
  3  4  2  0  0  0
  4  5  1  0  0  0
  5  6  2  0  0  0
  5  7  1  0  0  0
  7  8  2  0  0  0
  8  9  1  0  0  0
  9 10  2  0  0  0
 10 17  1  0  0  0
 17 18  1  0  0  0
 10 11  1  0  0  0
 11 12  2  0  0  0
 12 13  1  0  0  0
 13 14  1  0  0  0
  6  1  1  0  0  0
 12  7  1  0  0  0
 13  4  1  0  0  0
M  END
> <minimizedAffinity>
-6.38145

> <CNNscore>
0.4869972169

> <CNNaffinity>
5.2187452316

> <CNN_VS>
2.5415143967

> <CNNaffinity_variance>
0.1905755699

$$$$
[H]c1c(OC([H])([H])[H])c([H])c2c3nnc(SC([H])([H])[H])nc3n(C([H])([H])[H])c2c1[H]


 18 20  0  0  0  0  0  0  0  0999 V2000
  -86.0384   33.3416   -1.5106 C   0  0  0  0  0  0  0  0  0  0  0  0
  -84.7512   33.4168   -1.0226 C   0  0  0  0  0  0  0  0  0  0  0  0
  -84.2916   32.4087   -0.1730 C   0  0  0  0  0  0  0  0  0  0  0  0
  -85.0944   31.3363    0.1916 C   0  0  0  0  0  0  0  0  0  0  0  0
  -86.3762   31.2775   -0.3050 C   0  0  0  0  0  0  0  0  0  0  0  0
  -86.8424   32.2816   -1.1548 C   0  0  0  0  0  0  0  0  0  0  0  0
  -86.9672   30.1376    0.1914 C   0  0  0  0  0  0  0  0  0  0  0  0
  -88.1951   29.6259    0.0123 N   0  0  0  0  0  0  0  0  0  0  0  0
  -88.5190   28.4941    0.6141 N   0  0  0  0  0  0  0  0  0  0  0  0
  -87.6061   27.8973    1.3840 C   0  0  0  0  0  0  0  0  0  0  0  0
  -86.3698   28.3794    1.5862 N   0  0  0  0  0  0  0  0  0  0  0  0
  -86.0020   29.5373    0.9854 C   0  0  0  0  0  0  0  0  0  0  0  0
  -84.8694   30.2611    0.9862 N   0  0  0  0  0  0  0  0  0  0  0  0
  -83.6327   29.9440    1.7096 C   0  0  0  0  0  0  0  0  0  0  0  0
  -87.8455   34.3208   -2.8761 C   0  0  0  0  0  0  0  0  0  0  0  0
  -86.5513   34.3075   -2.3551 O   0  0  0  0  0  0  0  0  0  0  0  0
  -88.0781   26.3671    2.1847 S   0  0  0  0  0  0  0  0  0  0  0  0
  -89.4954   25.6455    1.2938 C   0  0  0  0  0  0  0  0  0  0  0  0
 15 16  1  0  0  0
 16  1  1  0  0  0
  1  2  2  0  0  0
  2  3  1  0  0  0
  3  4  2  0  0  0
  4  5  1  0  0  0
  5  6  2  0  0  0
  5  7  1  0  0  0
  7  8  2  0  0  0
  8  9  1  0  0  0
  9 10  2  0  0  0
 10 17  1  0  0  0
 17 18  1  0  0  0
 10 11  1  0  0  0
 11 12  2  0  0  0
 12 13  1  0  0  0
 13 14  1  0  0  0
  6  1  1  0  0  0
 12  7  1  0  0  0
 13  4  1  0  0  0
M  END
> <minimizedAffinity>
-6.46454

> <CNNscore>
0.4711891711

> <CNNaffinity>
5.5345287323

> <CNN_VS>
2.6078100204

> <CNNaffinity_variance>
0.1855454147

$$$$
[H]c1c(OC([H])([H])[H])c([H])c2c3nnc(SC([H])([H])[H])nc3n(C([H])([H])[H])c2c1[H]


 18 20  0  0  0  0  0  0  0  0999 V2000
  -83.5606   31.0340    0.9176 C   0  0  0  0  0  0  0  0  0  0  0  0
  -83.2643   32.2463    0.3319 C   0  0  0  0  0  0  0  0  0  0  0  0
  -84.2347   32.8716   -0.4532 C   0  0  0  0  0  0  0  0  0  0  0  0
  -85.4859   32.3061   -0.6587 C   0  0  0  0  0  0  0  0  0  0  0  0
  -85.7642   31.0958   -0.0665 C   0  0  0  0  0  0  0  0  0  0  0  0
  -84.7991   30.4650    0.7198 C   0  0  0  0  0  0  0  0  0  0  0  0
  -87.0497   30.7447   -0.4122 C   0  0  0  0  0  0  0  0  0  0  0  0
  -87.7898   29.6700   -0.0978 N   0  0  0  0  0  0  0  0  0  0  0  0
  -89.0214   29.5719   -0.5684 N   0  0  0  0  0  0  0  0  0  0  0  0
  -89.4872   30.5526   -1.3452 C   0  0  0  0  0  0  0  0  0  0  0  0
  -88.7765   31.6408   -1.6804 N   0  0  0  0  0  0  0  0  0  0  0  0
  -87.5102   31.7759   -1.2164 C   0  0  0  0  0  0  0  0  0  0  0  0
  -86.5657   32.7204   -1.3661 N   0  0  0  0  0  0  0  0  0  0  0  0
  -86.6859   33.9576   -2.1460 C   0  0  0  0  0  0  0  0  0  0  0  0
  -82.7259   29.0248    2.0819 C   0  0  0  0  0  0  0  0  0  0  0  0
  -82.6431   30.3657    1.7055 O   0  0  0  0  0  0  0  0  0  0  0  0
  -91.1583   30.3874   -1.9661 S   0  0  0  0  0  0  0  0  0  0  0  0
  -91.3761   28.7075   -2.6398 C   0  0  0  0  0  0  0  0  0  0  0  0
 15 16  1  0  0  0
 16  1  1  0  0  0
  1  2  2  0  0  0
  2  3  1  0  0  0
  3  4  2  0  0  0
  4  5  1  0  0  0
  5  6  2  0  0  0
  5  7  1  0  0  0
  7  8  2  0  0  0
  8  9  1  0  0  0
  9 10  2  0  0  0
 10 17  1  0  0  0
 17 18  1  0  0  0
 10 11  1  0  0  0
 11 12  2  0  0  0
 12 13  1  0  0  0
 13 14  1  0  0  0
  6  1  1  0  0  0
 12  7  1  0  0  0
 13  4  1  0  0  0
M  END
> <minimizedAffinity>
-6.38004

> <CNNscore>
0.4389559925

> <CNNaffinity>
5.4046287537

> <CNN_VS>
2.3723940849

> <CNNaffinity_variance>
0.1699612886

$$$$
[H]c1c(OC([H])([H])[H])c([H])c2c3nnc(SC([H])([H])[H])nc3n(C([H])([H])[H])c2c1[H]


 18 20  0  0  0  0  0  0  0  0999 V2000
  -85.1853   28.5057    2.0693 C   0  0  0  0  0  0  0  0  0  0  0  0
  -86.1716   27.6202    1.6902 C   0  0  0  0  0  0  0  0  0  0  0  0
  -87.0932   28.0125    0.7176 C   0  0  0  0  0  0  0  0  0  0  0  0
  -87.0423   29.2668    0.1246 C   0  0  0  0  0  0  0  0  0  0  0  0
  -86.0512   30.1375    0.5152 C   0  0  0  0  0  0  0  0  0  0  0  0
  -85.1265   29.7522    1.4868 C   0  0  0  0  0  0  0  0  0  0  0  0
  -86.2060   31.3006   -0.2049 C   0  0  0  0  0  0  0  0  0  0  0  0
  -85.5067   32.4463   -0.1991 N   0  0  0  0  0  0  0  0  0  0  0  0
  -85.8695   33.4303   -1.0041 N   0  0  0  0  0  0  0  0  0  0  0  0
  -86.9263   33.2471   -1.7990 C   0  0  0  0  0  0  0  0  0  0  0  0
  -87.6488   32.1164   -1.8315 N   0  0  0  0  0  0  0  0  0  0  0  0
  -87.3064   31.0860   -1.0205 C   0  0  0  0  0  0  0  0  0  0  0  0
  -87.8129   29.8567   -0.8221 N   0  0  0  0  0  0  0  0  0  0  0  0
  -88.9751   29.2727   -1.5013 C   0  0  0  0  0  0  0  0  0  0  0  0
  -82.9692   27.6733    2.7658 C   0  0  0  0  0  0  0  0  0  0  0  0
  -84.2442   28.1767    3.0260 O   0  0  0  0  0  0  0  0  0  0  0  0
  -87.3908   34.6003   -2.8754 S   0  0  0  0  0  0  0  0  0  0  0  0
  -89.1896   34.5360   -3.1645 C   0  0  0  0  0  0  0  0  0  0  0  0
 15 16  1  0  0  0
 16  1  1  0  0  0
  1  2  2  0  0  0
  2  3  1  0  0  0
  3  4  2  0  0  0
  4  5  1  0  0  0
  5  6  2  0  0  0
  5  7  1  0  0  0
  7  8  2  0  0  0
  8  9  1  0  0  0
  9 10  2  0  0  0
 10 17  1  0  0  0
 17 18  1  0  0  0
 10 11  1  0  0  0
 11 12  2  0  0  0
 12 13  1  0  0  0
 13 14  1  0  0  0
  6  1  1  0  0  0
 12  7  1  0  0  0
 13  4  1  0  0  0
M  END
> <minimizedAffinity>
-6.45280

> <CNNscore>
0.4338472784

> <CNNaffinity>
5.4418153763

> <CNN_VS>
2.3609168530

> <CNNaffinity_variance>
0.2805410028

$$$$
[H]OC1(c2c([H])c([H])c(C([H])([H])C([H])([H])C([H])([H])[H])c([H])c2[H])C([H])([H])C([H])([H])N(C([H])(c2c([H])c([H])c([H])c([H])c2[H])c2c([H])c([H])c([H])c([H])c2[H])C([H])([H])C1([H])[H]


 30 33  0  0  0  0  0  0  0  0999 V2000
  -87.1465   33.1042   -2.3371 C   0  0  0  0  0  0  0  0  0  0  0  0
  -86.4065   34.2181   -2.7921 O   0  0  0  0  0  0  0  0  0  0  0  0
  -87.3412   32.1924   -3.4871 C   0  0  0  0  0  0  0  0  0  0  0  0
  -87.9417   32.9832   -4.6174 C   0  0  0  0  0  0  0  0  0  0  0  0
  -88.7040   34.1025   -4.2055 N   0  0  0  0  0  0  0  0  0  0  0  0
  -89.3166   34.1579   -2.9655 C   0  0  0  0  0  0  0  0  0  0  0  0
  -88.4710   33.6019   -1.8437 C   0  0  0  0  0  0  0  0  0  0  0  0
  -85.4419   34.0690   -2.6212 H   0  0  0  0  0  0  0  0  0  0  0  0
  -84.8216   31.4325    0.8536 C   0  0  0  0  0  0  0  0  0  0  0  0
  -86.0210   30.8541    0.4845 C   0  0  0  0  0  0  0  0  0  0  0  0
  -86.7854   31.3669   -0.5617 C   0  0  0  0  0  0  0  0  0  0  0  0
  -86.3605   32.4800   -1.2644 C   0  0  0  0  0  0  0  0  0  0  0  0
  -85.1605   33.0337   -0.8782 C   0  0  0  0  0  0  0  0  0  0  0  0
  -84.3944   32.5404    0.1509 C   0  0  0  0  0  0  0  0  0  0  0  0
  -84.1113   30.9179    2.0427 C   0  0  0  0  0  0  0  0  0  0  0  0
  -83.3881   28.5737    2.3331 C   0  0  0  0  0  0  0  0  0  0  0  0
  -83.0676   29.8815    1.6614 C   0  0  0  0  0  0  0  0  0  0  0  0
  -88.6114   35.2299   -5.0454 C   0  0  0  0  0  0  0  0  0  0  0  0
  -89.5812   35.1966   -6.2151 C   0  0  0  0  0  0  0  0  0  0  0  0
  -90.5785   34.2197   -6.2654 C   0  0  0  0  0  0  0  0  0  0  0  0
  -91.4374   34.1326   -7.3257 C   0  0  0  0  0  0  0  0  0  0  0  0
  -91.2909   35.0450   -8.3548 C   0  0  0  0  0  0  0  0  0  0  0  0
  -90.3201   36.0015   -8.3045 C   0  0  0  0  0  0  0  0  0  0  0  0
  -89.4429   36.0822   -7.2101 C   0  0  0  0  0  0  0  0  0  0  0  0
  -88.8271   36.5466   -4.4483 C   0  0  0  0  0  0  0  0  0  0  0  0
  -87.7606   37.2719   -3.9242 C   0  0  0  0  0  0  0  0  0  0  0  0
  -87.9111   38.5332   -3.4219 C   0  0  0  0  0  0  0  0  0  0  0  0
  -89.1609   39.1461   -3.4214 C   0  0  0  0  0  0  0  0  0  0  0  0
  -90.2216   38.4484   -3.9260 C   0  0  0  0  0  0  0  0  0  0  0  0
  -90.0409   37.1678   -4.4269 C   0  0  0  0  0  0  0  0  0  0  0  0
 16 17  1  0  0  0
 17 15  1  0  0  0
 15  9  1  0  0  0
  9 10  2  0  0  0
 10 11  1  0  0  0
 11 12  2  0  0  0
 12  1  1  0  0  0
  1  2  1  0  0  0
  1  3  1  0  0  0
  3  4  1  0  0  0
  4  5  1  0  0  0
  5 18  1  0  0  0
 18 19  1  0  0  0
 19 20  2  0  0  0
 20 21  1  0  0  0
 21 22  2  0  0  0
 22 23  1  0  0  0
 23 24  2  0  0  0
 18 25  1  0  0  0
 25 26  2  0  0  0
 26 27  1  0  0  0
 27 28  2  0  0  0
 28 29  1  0  0  0
 29 30  2  0  0  0
  5  6  1  0  0  0
  6  7  1  0  0  0
 12 13  1  0  0  0
 13 14  2  0  0  0
 14  9  1  0  0  0
  7  1  1  0  0  0
 24 19  1  0  0  0
 30 25  1  0  0  0
  2  8  1  0  0  0
M  END
> <minimizedAffinity>
-8.99621

> <CNNscore>
0.2647378445

> <CNNaffinity>
5.8092904091

> <CNN_VS>
1.5379390717

> <CNNaffinity_variance>
0.1764553040

$$$$
[H]OC1(c2c([H])c([H])c(C([H])([H])C([H])([H])C([H])([H])[H])c([H])c2[H])C([H])([H])C([H])([H])N(C([H])(c2c([H])c([H])c([H])c([H])c2[H])c2c([H])c([H])c([H])c([H])c2[H])C([H])([H])C1([H])[H]


 30 33  0  0  0  0  0  0  0  0999 V2000
  -90.1390   27.1242    2.3010 C   0  0  0  0  0  0  0  0  0  0  0  0
  -88.9514   27.3522    1.5709 O   0  0  0  0  0  0  0  0  0  0  0  0
  -91.0179   26.2658    1.4748 C   0  0  0  0  0  0  0  0  0  0  0  0
  -91.1712   26.9118    0.1247 C   0  0  0  0  0  0  0  0  0  0  0  0
  -91.0205   28.3192    0.1312 N   0  0  0  0  0  0  0  0  0  0  0  0
  -91.2788   29.0805    1.2580 C   0  0  0  0  0  0  0  0  0  0  0  0
  -90.7928   28.4507    2.5423 C   0  0  0  0  0  0  0  0  0  0  0  0
  -88.2661   26.6865    1.8341 H   0  0  0  0  0  0  0  0  0  0  0  0
  -88.8511   25.1793    5.8981 C   0  0  0  0  0  0  0  0  0  0  0  0
  -89.5668   26.3597    5.9588 C   0  0  0  0  0  0  0  0  0  0  0  0
  -90.0133   27.0009    4.8049 C   0  0  0  0  0  0  0  0  0  0  0  0
  -89.7483   26.4684    3.5561 C   0  0  0  0  0  0  0  0  0  0  0  0
  -89.0370   25.2899    3.5251 C   0  0  0  0  0  0  0  0  0  0  0  0
  -88.5895   24.6447    4.6533 C   0  0  0  0  0  0  0  0  0  0  0  0
  -88.3039   24.6056    7.1449 C   0  0  0  0  0  0  0  0  0  0  0  0
  -86.2311   23.4834    7.8846 C   0  0  0  0  0  0  0  0  0  0  0  0
  -87.3295   23.4759    6.8561 C   0  0  0  0  0  0  0  0  0  0  0  0
  -90.3858   28.8571   -1.0059 C   0  0  0  0  0  0  0  0  0  0  0  0
  -91.3561   29.3308   -2.0755 C   0  0  0  0  0  0  0  0  0  0  0  0
  -92.7167   29.4447   -1.7803 C   0  0  0  0  0  0  0  0  0  0  0  0
  -93.6228   29.8228   -2.7319 C   0  0  0  0  0  0  0  0  0  0  0  0
  -93.1519   30.0919   -4.0042 C   0  0  0  0  0  0  0  0  0  0  0  0
  -91.8231   29.9849   -4.2921 C   0  0  0  0  0  0  0  0  0  0  0  0
  -90.9006   29.5956   -3.3066 C   0  0  0  0  0  0  0  0  0  0  0  0
  -89.4911   29.9971   -0.8142 C   0  0  0  0  0  0  0  0  0  0  0  0
  -88.1162   29.8095   -0.7017 C   0  0  0  0  0  0  0  0  0  0  0  0
  -87.2426   30.8538   -0.5919 C   0  0  0  0  0  0  0  0  0  0  0  0
  -87.7098   32.1652   -0.5923 C   0  0  0  0  0  0  0  0  0  0  0  0
  -89.0565   32.3700   -0.6957 C   0  0  0  0  0  0  0  0  0  0  0  0
  -89.9212   31.2911   -0.8028 C   0  0  0  0  0  0  0  0  0  0  0  0
 16 17  1  0  0  0
 17 15  1  0  0  0
 15  9  1  0  0  0
  9 10  2  0  0  0
 10 11  1  0  0  0
 11 12  2  0  0  0
 12  1  1  0  0  0
  1  2  1  0  0  0
  1  3  1  0  0  0
  3  4  1  0  0  0
  4  5  1  0  0  0
  5 18  1  0  0  0
 18 19  1  0  0  0
 19 20  2  0  0  0
 20 21  1  0  0  0
 21 22  2  0  0  0
 22 23  1  0  0  0
 23 24  2  0  0  0
 18 25  1  0  0  0
 25 26  2  0  0  0
 26 27  1  0  0  0
 27 28  2  0  0  0
 28 29  1  0  0  0
 29 30  2  0  0  0
  5  6  1  0  0  0
  6  7  1  0  0  0
 12 13  1  0  0  0
 13 14  2  0  0  0
 14  9  1  0  0  0
  7  1  1  0  0  0
 24 19  1  0  0  0
 30 25  1  0  0  0
  2  8  1  0  0  0
M  END
> <minimizedAffinity>
-7.17081

> <CNNscore>
0.2573890388

> <CNNaffinity>
5.3486247063

> <CNN_VS>
1.3766773939

> <CNNaffinity_variance>
0.3309077621

$$$$
[H]OC1(c2c([H])c([H])c(C([H])([H])C([H])([H])C([H])([H])[H])c([H])c2[H])C([H])([H])C([H])([H])N(C([H])(c2c([H])c([H])c([H])c([H])c2[H])c2c([H])c([H])c([H])c([H])c2[H])C([H])([H])C1([H])[H]


 30 33  0  0  0  0  0  0  0  0999 V2000
  -87.7261   33.0737   -2.1751 C   0  0  0  0  0  0  0  0  0  0  0  0
  -89.0723   33.1686   -1.7579 O   0  0  0  0  0  0  0  0  0  0  0  0
  -87.2094   34.4505   -2.3467 C   0  0  0  0  0  0  0  0  0  0  0  0
  -88.1463   35.1936   -3.2596 C   0  0  0  0  0  0  0  0  0  0  0  0
  -88.8535   34.3685   -4.1666 N   0  0  0  0  0  0  0  0  0  0  0  0
  -88.3595   33.1450   -4.5851 C   0  0  0  0  0  0  0  0  0  0  0  0
  -87.7005   32.3464   -3.4850 C   0  0  0  0  0  0  0  0  0  0  0  0
  -89.1176   33.1285   -0.7688 H   0  0  0  0  0  0  0  0  0  0  0  0
  -85.6359   30.7968    0.7959 C   0  0  0  0  0  0  0  0  0  0  0  0
  -85.1995   32.0609    0.4482 C   0  0  0  0  0  0  0  0  0  0  0  0
  -85.8726   32.8285   -0.5003 C   0  0  0  0  0  0  0  0  0  0  0  0
  -87.0056   32.3402   -1.1259 C   0  0  0  0  0  0  0  0  0  0  0  0
  -87.4203   31.0800   -0.7576 C   0  0  0  0  0  0  0  0  0  0  0  0
  -86.7683   30.3100    0.1758 C   0  0  0  0  0  0  0  0  0  0  0  0
  -84.8191   29.9833    1.7202 C   0  0  0  0  0  0  0  0  0  0  0  0
  -82.5792   28.9967    2.0551 C   0  0  0  0  0  0  0  0  0  0  0  0
  -83.3348   30.1414    1.4361 C   0  0  0  0  0  0  0  0  0  0  0  0
  -90.1760   34.7731   -4.4356 C   0  0  0  0  0  0  0  0  0  0  0  0
  -90.3980   36.2680   -4.2744 C   0  0  0  0  0  0  0  0  0  0  0  0
  -91.6521   36.7483   -3.8899 C   0  0  0  0  0  0  0  0  0  0  0  0
  -91.8987   38.0888   -3.7810 C   0  0  0  0  0  0  0  0  0  0  0  0
  -90.8647   38.9628   -4.0638 C   0  0  0  0  0  0  0  0  0  0  0  0
  -89.6389   38.4944   -4.4354 C   0  0  0  0  0  0  0  0  0  0  0  0
  -89.3963   37.1149   -4.5440 C   0  0  0  0  0  0  0  0  0  0  0  0
  -90.7258   34.4773   -5.7573 C   0  0  0  0  0  0  0  0  0  0  0  0
  -91.8253   33.6347   -5.8966 C   0  0  0  0  0  0  0  0  0  0  0  0
  -92.4099   33.3900   -7.1066 C   0  0  0  0  0  0  0  0  0  0  0  0
  -91.9160   33.9905   -8.2612 C   0  0  0  0  0  0  0  0  0  0  0  0
  -90.8337   34.8162   -8.1463 C   0  0  0  0  0  0  0  0  0  0  0  0
  -90.2577   35.0446   -6.9056 C   0  0  0  0  0  0  0  0  0  0  0  0
 16 17  1  0  0  0
 17 15  1  0  0  0
 15  9  1  0  0  0
  9 10  2  0  0  0
 10 11  1  0  0  0
 11 12  2  0  0  0
 12  1  1  0  0  0
  1  2  1  0  0  0
  1  3  1  0  0  0
  3  4  1  0  0  0
  4  5  1  0  0  0
  5 18  1  0  0  0
 18 19  1  0  0  0
 19 20  2  0  0  0
 20 21  1  0  0  0
 21 22  2  0  0  0
 22 23  1  0  0  0
 23 24  2  0  0  0
 18 25  1  0  0  0
 25 26  2  0  0  0
 26 27  1  0  0  0
 27 28  2  0  0  0
 28 29  1  0  0  0
 29 30  2  0  0  0
  5  6  1  0  0  0
  6  7  1  0  0  0
 12 13  1  0  0  0
 13 14  2  0  0  0
 14  9  1  0  0  0
  7  1  1  0  0  0
 24 19  1  0  0  0
 30 25  1  0  0  0
  2  8  1  0  0  0
M  END
> <minimizedAffinity>
-8.64069

> <CNNscore>
0.1478105783

> <CNNaffinity>
5.2968664169

> <CNN_VS>
0.7829328775

> <CNNaffinity_variance>
0.2710189223

$$$$
[H]OC1(c2c([H])c([H])c(C([H])([H])C([H])([H])C([H])([H])[H])c([H])c2[H])C([H])([H])C([H])([H])N(C([H])(c2c([H])c([H])c([H])c([H])c2[H])c2c([H])c([H])c([H])c([H])c2[H])C([H])([H])C1([H])[H]


 30 33  0  0  0  0  0  0  0  0999 V2000
  -87.5946   32.8958   -1.9524 C   0  0  0  0  0  0  0  0  0  0  0  0
  -86.9645   31.9407   -2.7808 O   0  0  0  0  0  0  0  0  0  0  0  0
  -86.6350   33.2743   -0.8905 C   0  0  0  0  0  0  0  0  0  0  0  0
  -86.1541   32.0155   -0.2213 C   0  0  0  0  0  0  0  0  0  0  0  0
  -87.0716   30.9390   -0.2759 N   0  0  0  0  0  0  0  0  0  0  0  0
  -88.4358   31.1417   -0.3935 C   0  0  0  0  0  0  0  0  0  0  0  0
  -88.8057   32.2531   -1.3478 C   0  0  0  0  0  0  0  0  0  0  0  0
  -86.5462   32.3963   -3.5550 H   0  0  0  0  0  0  0  0  0  0  0  0
  -88.7257   36.2769   -4.3334 C   0  0  0  0  0  0  0  0  0  0  0  0
  -87.4052   35.8746   -4.2723 C   0  0  0  0  0  0  0  0  0  0  0  0
  -87.0151   34.7676   -3.5212 C   0  0  0  0  0  0  0  0  0  0  0  0
  -87.9481   34.0357   -2.8091 C   0  0  0  0  0  0  0  0  0  0  0  0
  -89.2566   34.4561   -2.8909 C   0  0  0  0  0  0  0  0  0  0  0  0
  -89.6582   35.5454   -3.6268 C   0  0  0  0  0  0  0  0  0  0  0  0
  -89.0649   37.5238   -5.0499 C   0  0  0  0  0  0  0  0  0  0  0  0
  -88.3939   39.0329   -3.2127 C   0  0  0  0  0  0  0  0  0  0  0  0
  -89.5375   38.6044   -4.0918 C   0  0  0  0  0  0  0  0  0  0  0  0
  -86.4890   29.6647   -0.4237 C   0  0  0  0  0  0  0  0  0  0  0  0
  -85.3190   29.4197    0.5150 C   0  0  0  0  0  0  0  0  0  0  0  0
  -85.4430   28.4968    1.5563 C   0  0  0  0  0  0  0  0  0  0  0  0
  -84.4267   28.2866    2.4465 C   0  0  0  0  0  0  0  0  0  0  0  0
  -83.2637   29.0180    2.2866 C   0  0  0  0  0  0  0  0  0  0  0  0
  -83.1405   29.9163    1.2677 C   0  0  0  0  0  0  0  0  0  0  0  0
  -84.1911   30.1243    0.3585 C   0  0  0  0  0  0  0  0  0  0  0  0
  -87.3447   28.4954   -0.2304 C   0  0  0  0  0  0  0  0  0  0  0  0
  -87.3779   27.4755   -1.1774 C   0  0  0  0  0  0  0  0  0  0  0  0
  -88.1104   26.3364   -0.9995 C   0  0  0  0  0  0  0  0  0  0  0  0
  -88.8594   26.1552    0.1598 C   0  0  0  0  0  0  0  0  0  0  0  0
  -88.8447   27.1474    1.0988 C   0  0  0  0  0  0  0  0  0  0  0  0
  -88.0945   28.2951    0.8910 C   0  0  0  0  0  0  0  0  0  0  0  0
 16 17  1  0  0  0
 17 15  1  0  0  0
 15  9  1  0  0  0
  9 10  2  0  0  0
 10 11  1  0  0  0
 11 12  2  0  0  0
 12  1  1  0  0  0
  1  2  1  0  0  0
  1  3  1  0  0  0
  3  4  1  0  0  0
  4  5  1  0  0  0
  5 18  1  0  0  0
 18 19  1  0  0  0
 19 20  2  0  0  0
 20 21  1  0  0  0
 21 22  2  0  0  0
 22 23  1  0  0  0
 23 24  2  0  0  0
 18 25  1  0  0  0
 25 26  2  0  0  0
 26 27  1  0  0  0
 27 28  2  0  0  0
 28 29  1  0  0  0
 29 30  2  0  0  0
  5  6  1  0  0  0
  6  7  1  0  0  0
 12 13  1  0  0  0
 13 14  2  0  0  0
 14  9  1  0  0  0
  7  1  1  0  0  0
 24 19  1  0  0  0
 30 25  1  0  0  0
  2  8  1  0  0  0
M  END
> <minimizedAffinity>
-9.16386

> <CNNscore>
0.1399716139

> <CNNaffinity>
5.5652799606

> <CNN_VS>
0.7789812088

> <CNNaffinity_variance>
0.4487514496

$$$$
[H]OC1(c2c([H])c([H])c(C([H])([H])C([H])([H])C([H])([H])[H])c([H])c2[H])C([H])([H])C([H])([H])N(C([H])(c2c([H])c([H])c([H])c([H])c2[H])c2c([H])c([H])c([H])c([H])c2[H])C([H])([H])C1([H])[H]


 30 33  0  0  0  0  0  0  0  0999 V2000
  -88.7093   26.8576   -0.5746 C   0  0  0  0  0  0  0  0  0  0  0  0
  -89.4033   27.8795    0.1107 O   0  0  0  0  0  0  0  0  0  0  0  0
  -87.6178   26.3850    0.3069 C   0  0  0  0  0  0  0  0  0  0  0  0
  -86.8083   27.5790    0.7340 C   0  0  0  0  0  0  0  0  0  0  0  0
  -86.8349   28.6590   -0.1807 N   0  0  0  0  0  0  0  0  0  0  0  0
  -87.0682   28.4714   -1.5321 C   0  0  0  0  0  0  0  0  0  0  0  0
  -88.1401   27.4488   -1.8283 C   0  0  0  0  0  0  0  0  0  0  0  0
  -90.1821   27.4920    0.5854 H   0  0  0  0  0  0  0  0  0  0  0  0
  -91.6733   23.8811   -1.4319 C   0  0  0  0  0  0  0  0  0  0  0  0
  -90.4062   23.7831   -1.9742 C   0  0  0  0  0  0  0  0  0  0  0  0
  -89.4197   24.7270   -1.6955 C   0  0  0  0  0  0  0  0  0  0  0  0
  -89.6855   25.7980   -0.8614 C   0  0  0  0  0  0  0  0  0  0  0  0
  -90.9545   25.8688   -0.3319 C   0  0  0  0  0  0  0  0  0  0  0  0
  -91.9388   24.9466   -0.5964 C   0  0  0  0  0  0  0  0  0  0  0  0
  -92.7119   22.9181   -1.8530 C   0  0  0  0  0  0  0  0  0  0  0  0
  -93.6009   23.7848   -3.9888 C   0  0  0  0  0  0  0  0  0  0  0  0
  -92.7224   22.7364   -3.3616 C   0  0  0  0  0  0  0  0  0  0  0  0
  -86.8283   29.9395    0.4069 C   0  0  0  0  0  0  0  0  0  0  0  0
  -85.4357   30.4431    0.7490 C   0  0  0  0  0  0  0  0  0  0  0  0
  -85.2259   31.1648    1.9264 C   0  0  0  0  0  0  0  0  0  0  0  0
  -83.9958   31.6722    2.2413 C   0  0  0  0  0  0  0  0  0  0  0  0
  -82.9571   31.4494    1.3557 C   0  0  0  0  0  0  0  0  0  0  0  0
  -83.1603   30.7413    0.2079 C   0  0  0  0  0  0  0  0  0  0  0  0
  -84.4284   30.2244   -0.1058 C   0  0  0  0  0  0  0  0  0  0  0  0
  -87.4240   31.0408   -0.3475 C   0  0  0  0  0  0  0  0  0  0  0  0
  -88.8068   31.1853   -0.4202 C   0  0  0  0  0  0  0  0  0  0  0  0
  -89.3990   32.2393   -1.0560 C   0  0  0  0  0  0  0  0  0  0  0  0
  -88.6220   33.2233   -1.6607 C   0  0  0  0  0  0  0  0  0  0  0  0
  -87.2629   33.0963   -1.6055 C   0  0  0  0  0  0  0  0  0  0  0  0
  -86.6880   32.0142   -0.9559 C   0  0  0  0  0  0  0  0  0  0  0  0
 16 17  1  0  0  0
 17 15  1  0  0  0
 15  9  1  0  0  0
  9 10  2  0  0  0
 10 11  1  0  0  0
 11 12  2  0  0  0
 12  1  1  0  0  0
  1  2  1  0  0  0
  1  3  1  0  0  0
  3  4  1  0  0  0
  4  5  1  0  0  0
  5 18  1  0  0  0
 18 19  1  0  0  0
 19 20  2  0  0  0
 20 21  1  0  0  0
 21 22  2  0  0  0
 22 23  1  0  0  0
 23 24  2  0  0  0
 18 25  1  0  0  0
 25 26  2  0  0  0
 26 27  1  0  0  0
 27 28  2  0  0  0
 28 29  1  0  0  0
 29 30  2  0  0  0
  5  6  1  0  0  0
  6  7  1  0  0  0
 12 13  1  0  0  0
 13 14  2  0  0  0
 14  9  1  0  0  0
  7  1  1  0  0  0
 24 19  1  0  0  0
 30 25  1  0  0  0
  2  8  1  0  0  0
M  END
> <minimizedAffinity>
-8.57168

> <CNNscore>
0.1397643685

> <CNNaffinity>
5.4896879196

> <CNN_VS>
0.7672627568

> <CNNaffinity_variance>
0.4410735667

$$$$
[H]OC1(c2c([H])c([H])c(C([H])([H])C([H])([H])C([H])([H])[H])c([H])c2[H])C([H])([H])C([H])([H])N(C([H])(c2c([H])c([H])c([H])c([H])c2[H])c2c([H])c([H])c([H])c([H])c2[H])C([H])([H])C1([H])[H]


 30 33  0  0  0  0  0  0  0  0999 V2000
  -87.8481   33.4162   -2.6823 C   0  0  0  0  0  0  0  0  0  0  0  0
  -87.5476   32.2364   -3.3987 O   0  0  0  0  0  0  0  0  0  0  0  0
  -86.6090   33.8592   -2.0038 C   0  0  0  0  0  0  0  0  0  0  0  0
  -86.0727   32.7038   -1.2033 C   0  0  0  0  0  0  0  0  0  0  0  0
  -87.0578   31.7781   -0.7835 N   0  0  0  0  0  0  0  0  0  0  0  0
  -88.3811   32.1435   -0.6060 C   0  0  0  0  0  0  0  0  0  0  0  0
  -88.9003   33.0837   -1.6685 C   0  0  0  0  0  0  0  0  0  0  0  0
  -87.3172   32.4653   -4.3349 H   0  0  0  0  0  0  0  0  0  0  0  0
  -89.2590   36.3965   -5.4222 C   0  0  0  0  0  0  0  0  0  0  0  0
  -88.1451   35.6377   -5.7266 C   0  0  0  0  0  0  0  0  0  0  0  0
  -87.6782   34.6499   -4.8616 C   0  0  0  0  0  0  0  0  0  0  0  0
  -88.3228   34.4011   -3.6633 C   0  0  0  0  0  0  0  0  0  0  0  0
  -89.4319   35.1688   -3.3873 C   0  0  0  0  0  0  0  0  0  0  0  0
  -89.9056   36.1467   -4.2292 C   0  0  0  0  0  0  0  0  0  0  0  0
  -89.6400   37.5063   -6.3202 C   0  0  0  0  0  0  0  0  0  0  0  0
  -90.4467   36.5717   -8.4600 C   0  0  0  0  0  0  0  0  0  0  0  0
  -89.2726   37.2047   -7.7634 C   0  0  0  0  0  0  0  0  0  0  0  0
  -86.6459   30.4308   -0.7740 C   0  0  0  0  0  0  0  0  0  0  0  0
  -85.9490   30.0182    0.5121 C   0  0  0  0  0  0  0  0  0  0  0  0
  -85.6093   30.9852    1.4613 C   0  0  0  0  0  0  0  0  0  0  0  0
  -84.9405   30.6546    2.6071 C   0  0  0  0  0  0  0  0  0  0  0  0
  -84.6071   29.3266    2.8024 C   0  0  0  0  0  0  0  0  0  0  0  0
  -84.9420   28.3813    1.8780 C   0  0  0  0  0  0  0  0  0  0  0  0
  -85.6294   28.7320    0.7040 C   0  0  0  0  0  0  0  0  0  0  0  0
  -87.6671   29.4025   -0.9650 C   0  0  0  0  0  0  0  0  0  0  0  0
  -88.5254   29.0525    0.0737 C   0  0  0  0  0  0  0  0  0  0  0  0
  -89.5360   28.1477   -0.0866 C   0  0  0  0  0  0  0  0  0  0  0  0
  -89.7450   27.5373   -1.3201 C   0  0  0  0  0  0  0  0  0  0  0  0
  -88.9094   27.8629   -2.3507 C   0  0  0  0  0  0  0  0  0  0  0  0
  -87.8893   28.7826   -2.1592 C   0  0  0  0  0  0  0  0  0  0  0  0
 16 17  1  0  0  0
 17 15  1  0  0  0
 15  9  1  0  0  0
  9 10  2  0  0  0
 10 11  1  0  0  0
 11 12  2  0  0  0
 12  1  1  0  0  0
  1  2  1  0  0  0
  1  3  1  0  0  0
  3  4  1  0  0  0
  4  5  1  0  0  0
  5 18  1  0  0  0
 18 19  1  0  0  0
 19 20  2  0  0  0
 20 21  1  0  0  0
 21 22  2  0  0  0
 22 23  1  0  0  0
 23 24  2  0  0  0
 18 25  1  0  0  0
 25 26  2  0  0  0
 26 27  1  0  0  0
 27 28  2  0  0  0
 28 29  1  0  0  0
 29 30  2  0  0  0
  5  6  1  0  0  0
  6  7  1  0  0  0
 12 13  1  0  0  0
 13 14  2  0  0  0
 14  9  1  0  0  0
  7  1  1  0  0  0
 24 19  1  0  0  0
 30 25  1  0  0  0
  2  8  1  0  0  0
M  END
> <minimizedAffinity>
-8.45443

> <CNNscore>
0.1372561604

> <CNNaffinity>
5.5099372864

> <CNN_VS>
0.7562728524

> <CNNaffinity_variance>
0.3875402510

$$$$
[H]OC1(c2c([H])c([H])c(C([H])([H])C([H])([H])C([H])([H])[H])c([H])c2[H])C([H])([H])C([H])([H])N(C([H])(c2c([H])c([H])c([H])c([H])c2[H])c2c([H])c([H])c([H])c([H])c2[H])C([H])([H])C1([H])[H]


 30 33  0  0  0  0  0  0  0  0999 V2000
  -87.3858   32.2100   -1.5912 C   0  0  0  0  0  0  0  0  0  0  0  0
  -88.4834   32.9494   -1.0971 O   0  0  0  0  0  0  0  0  0  0  0  0
  -86.2178   33.1182   -1.6439 C   0  0  0  0  0  0  0  0  0  0  0  0
  -86.6100   34.3433   -2.4241 C   0  0  0  0  0  0  0  0  0  0  0  0
  -87.6359   34.1256   -3.3747 N   0  0  0  0  0  0  0  0  0  0  0  0
  -87.8581   32.8838   -3.9444 C   0  0  0  0  0  0  0  0  0  0  0  0
  -87.7332   31.7362   -2.9697 C   0  0  0  0  0  0  0  0  0  0  0  0
  -88.5544   32.8243   -0.1167 H   0  0  0  0  0  0  0  0  0  0  0  0
  -86.8136   28.8408    0.9975 C   0  0  0  0  0  0  0  0  0  0  0  0
  -85.8892   29.8675    0.9709 C   0  0  0  0  0  0  0  0  0  0  0  0
  -86.0622   30.9822    0.1527 C   0  0  0  0  0  0  0  0  0  0  0  0
  -87.1738   31.0910   -0.6634 C   0  0  0  0  0  0  0  0  0  0  0  0
  -88.0803   30.0559   -0.6140 C   0  0  0  0  0  0  0  0  0  0  0  0
  -87.9250   28.9498    0.1871 C   0  0  0  0  0  0  0  0  0  0  0  0
  -86.5222   27.6317    1.7953 C   0  0  0  0  0  0  0  0  0  0  0  0
  -88.4118   26.2490    2.5828 C   0  0  0  0  0  0  0  0  0  0  0  0
  -87.4625   26.4920    1.4408 C   0  0  0  0  0  0  0  0  0  0  0  0
  -88.5417   35.1934   -3.5310 C   0  0  0  0  0  0  0  0  0  0  0  0
  -87.8654   36.5321   -3.7764 C   0  0  0  0  0  0  0  0  0  0  0  0
  -88.3362   37.6787   -3.1322 C   0  0  0  0  0  0  0  0  0  0  0  0
  -87.7808   38.9061   -3.3663 C   0  0  0  0  0  0  0  0  0  0  0  0
  -86.7321   38.9819   -4.2648 C   0  0  0  0  0  0  0  0  0  0  0  0
  -86.2692   37.8622   -4.8910 C   0  0  0  0  0  0  0  0  0  0  0  0
  -86.8472   36.6060   -4.6431 C   0  0  0  0  0  0  0  0  0  0  0  0
  -89.5316   35.0988   -4.6025 C   0  0  0  0  0  0  0  0  0  0  0  0
  -90.8770   34.8927   -4.3100 C   0  0  0  0  0  0  0  0  0  0  0  0
  -91.8400   34.8685   -5.2783 C   0  0  0  0  0  0  0  0  0  0  0  0
  -91.4991   35.0561   -6.6149 C   0  0  0  0  0  0  0  0  0  0  0  0
  -90.1830   35.2539   -6.9231 C   0  0  0  0  0  0  0  0  0  0  0  0
  -89.2254   35.2707   -5.9202 C   0  0  0  0  0  0  0  0  0  0  0  0
 16 17  1  0  0  0
 17 15  1  0  0  0
 15  9  1  0  0  0
  9 10  2  0  0  0
 10 11  1  0  0  0
 11 12  2  0  0  0
 12  1  1  0  0  0
  1  2  1  0  0  0
  1  3  1  0  0  0
  3  4  1  0  0  0
  4  5  1  0  0  0
  5 18  1  0  0  0
 18 19  1  0  0  0
 19 20  2  0  0  0
 20 21  1  0  0  0
 21 22  2  0  0  0
 22 23  1  0  0  0
 23 24  2  0  0  0
 18 25  1  0  0  0
 25 26  2  0  0  0
 26 27  1  0  0  0
 27 28  2  0  0  0
 28 29  1  0  0  0
 29 30  2  0  0  0
  5  6  1  0  0  0
  6  7  1  0  0  0
 12 13  1  0  0  0
 13 14  2  0  0  0
 14  9  1  0  0  0
  7  1  1  0  0  0
 24 19  1  0  0  0
 30 25  1  0  0  0
  2  8  1  0  0  0
M  END
> <minimizedAffinity>
-7.50521

> <CNNscore>
0.1320727170

> <CNNaffinity>
5.2624034882

> <CNN_VS>
0.6950199008

> <CNNaffinity_variance>
0.4236535132

$$$$
[H]OC1(c2c([H])c([H])c(C([H])([H])C([H])([H])C([H])([H])[H])c([H])c2[H])C([H])([H])C([H])([H])N(C([H])(c2c([H])c([H])c([H])c([H])c2[H])c2c([H])c([H])c([H])c([H])c2[H])C([H])([H])C1([H])[H]


 30 33  0  0  0  0  0  0  0  0999 V2000
  -89.2652   28.8500   -1.8394 C   0  0  0  0  0  0  0  0  0  0  0  0
  -89.2756   29.3710   -3.1523 O   0  0  0  0  0  0  0  0  0  0  0  0
  -89.1300   27.3791   -1.9393 C   0  0  0  0  0  0  0  0  0  0  0  0
  -90.2076   26.8695   -2.8571 C   0  0  0  0  0  0  0  0  0  0  0  0
  -91.3664   27.6811   -2.9031 N   0  0  0  0  0  0  0  0  0  0  0  0
  -91.7331   28.4985   -1.8479 C   0  0  0  0  0  0  0  0  0  0  0  0
  -90.5695   29.2052   -1.1929 C   0  0  0  0  0  0  0  0  0  0  0  0
  -88.3579   29.6417   -3.4101 H   0  0  0  0  0  0  0  0  0  0  0  0
  -85.8343   30.5534    0.0863 C   0  0  0  0  0  0  0  0  0  0  0  0
  -86.9137   31.3475   -0.2506 C   0  0  0  0  0  0  0  0  0  0  0  0
  -88.0482   30.8146   -0.8595 C   0  0  0  0  0  0  0  0  0  0  0  0
  -88.1242   29.4636   -1.1467 C   0  0  0  0  0  0  0  0  0  0  0  0
  -87.0366   28.6953   -0.7968 C   0  0  0  0  0  0  0  0  0  0  0  0
  -85.9103   29.2049   -0.1958 C   0  0  0  0  0  0  0  0  0  0  0  0
  -84.6134   31.1896    0.6228 C   0  0  0  0  0  0  0  0  0  0  0  0
  -84.8842   31.3739    3.0714 C   0  0  0  0  0  0  0  0  0  0  0  0
  -84.2221   30.5967    1.9660 C   0  0  0  0  0  0  0  0  0  0  0  0
  -91.9877   27.7642   -4.1650 C   0  0  0  0  0  0  0  0  0  0  0  0
  -92.8449   26.5549   -4.5002 C   0  0  0  0  0  0  0  0  0  0  0  0
  -93.2918   26.3593   -5.8092 C   0  0  0  0  0  0  0  0  0  0  0  0
  -94.1027   25.3078   -6.1354 C   0  0  0  0  0  0  0  0  0  0  0  0
  -94.4711   24.4364   -5.1265 C   0  0  0  0  0  0  0  0  0  0  0  0
  -94.0319   24.6245   -3.8490 C   0  0  0  0  0  0  0  0  0  0  0  0
  -93.1988   25.7083   -3.5248 C   0  0  0  0  0  0  0  0  0  0  0  0
  -92.8706   28.9013   -4.4185 C   0  0  0  0  0  0  0  0  0  0  0  0
  -92.4474   29.9665   -5.2087 C   0  0  0  0  0  0  0  0  0  0  0  0
  -93.2668   31.0125   -5.5253 C   0  0  0  0  0  0  0  0  0  0  0  0
  -94.5786   31.0445   -5.0606 C   0  0  0  0  0  0  0  0  0  0  0  0
  -95.0113   30.0112   -4.2787 C   0  0  0  0  0  0  0  0  0  0  0  0
  -94.1570   28.9633   -3.9700 C   0  0  0  0  0  0  0  0  0  0  0  0
 16 17  1  0  0  0
 17 15  1  0  0  0
 15  9  1  0  0  0
  9 10  2  0  0  0
 10 11  1  0  0  0
 11 12  2  0  0  0
 12  1  1  0  0  0
  1  2  1  0  0  0
  1  3  1  0  0  0
  3  4  1  0  0  0
  4  5  1  0  0  0
  5 18  1  0  0  0
 18 19  1  0  0  0
 19 20  2  0  0  0
 20 21  1  0  0  0
 21 22  2  0  0  0
 22 23  1  0  0  0
 23 24  2  0  0  0
 18 25  1  0  0  0
 25 26  2  0  0  0
 26 27  1  0  0  0
 27 28  2  0  0  0
 28 29  1  0  0  0
 29 30  2  0  0  0
  5  6  1  0  0  0
  6  7  1  0  0  0
 12 13  1  0  0  0
 13 14  2  0  0  0
 14  9  1  0  0  0
  7  1  1  0  0  0
 24 19  1  0  0  0
 30 25  1  0  0  0
  2  8  1  0  0  0
M  END
> <minimizedAffinity>
-7.31533

> <CNNscore>
0.1252467632

> <CNNaffinity>
5.1635880470

> <CNN_VS>
0.6467226744

> <CNNaffinity_variance>
0.2975587249

$$$$
[H]OC1(c2c([H])c([H])c(C([H])([H])C([H])([H])C([H])([H])[H])c([H])c2[H])C([H])([H])C([H])([H])N(C([H])(c2c([H])c([H])c([H])c([H])c2[H])c2c([H])c([H])c([H])c([H])c2[H])C([H])([H])C1([H])[H]


 30 33  0  0  0  0  0  0  0  0999 V2000
  -90.2193   28.9213   -1.9240 C   0  0  0  0  0  0  0  0  0  0  0  0
  -88.8565   28.7656   -2.2613 O   0  0  0  0  0  0  0  0  0  0  0  0
  -90.9014   29.5448   -3.0807 C   0  0  0  0  0  0  0  0  0  0  0  0
  -90.1520   30.7961   -3.4495 C   0  0  0  0  0  0  0  0  0  0  0  0
  -89.4539   31.3961   -2.3742 N   0  0  0  0  0  0  0  0  0  0  0  0
  -89.8485   31.2293   -1.0579 C   0  0  0  0  0  0  0  0  0  0  0  0
  -90.2979   29.8245   -0.7309 C   0  0  0  0  0  0  0  0  0  0  0  0
  -88.7057   27.8564   -2.6255 H   0  0  0  0  0  0  0  0  0  0  0  0
  -91.6229   24.9424   -1.1631 C   0  0  0  0  0  0  0  0  0  0  0  0
  -91.5768   25.8748   -0.1443 C   0  0  0  0  0  0  0  0  0  0  0  0
  -91.1430   27.1796   -0.3702 C   0  0  0  0  0  0  0  0  0  0  0  0
  -90.7419   27.5797   -1.6322 C   0  0  0  0  0  0  0  0  0  0  0  0
  -90.8017   26.6319   -2.6291 C   0  0  0  0  0  0  0  0  0  0  0  0
  -91.2271   25.3412   -2.4233 C   0  0  0  0  0  0  0  0  0  0  0  0
  -91.9801   23.5449   -0.8429 C   0  0  0  0  0  0  0  0  0  0  0  0
  -89.7358   22.6253   -0.3738 C   0  0  0  0  0  0  0  0  0  0  0  0
  -91.0702   22.9704    0.2299 C   0  0  0  0  0  0  0  0  0  0  0  0
  -88.2195   31.9826   -2.7166 C   0  0  0  0  0  0  0  0  0  0  0  0
  -88.3543   33.3684   -3.3259 C   0  0  0  0  0  0  0  0  0  0  0  0
  -89.4071   34.2004   -2.9379 C   0  0  0  0  0  0  0  0  0  0  0  0
  -89.5845   35.4341   -3.5002 C   0  0  0  0  0  0  0  0  0  0  0  0
  -88.6861   35.8390   -4.4707 C   0  0  0  0  0  0  0  0  0  0  0  0
  -87.6556   35.0288   -4.8472 C   0  0  0  0  0  0  0  0  0  0  0  0
  -87.4825   33.7630   -4.2628 C   0  0  0  0  0  0  0  0  0  0  0  0
  -87.2296   32.1605   -1.6559 C   0  0  0  0  0  0  0  0  0  0  0  0
  -86.7586   31.0675   -0.9336 C   0  0  0  0  0  0  0  0  0  0  0  0
  -85.7839   31.1842    0.0161 C   0  0  0  0  0  0  0  0  0  0  0  0
  -85.2175   32.4249    0.2946 C   0  0  0  0  0  0  0  0  0  0  0  0
  -85.6704   33.5110   -0.3993 C   0  0  0  0  0  0  0  0  0  0  0  0
  -86.6635   33.3644   -1.3562 C   0  0  0  0  0  0  0  0  0  0  0  0
 16 17  1  0  0  0
 17 15  1  0  0  0
 15  9  1  0  0  0
  9 10  2  0  0  0
 10 11  1  0  0  0
 11 12  2  0  0  0
 12  1  1  0  0  0
  1  2  1  0  0  0
  1  3  1  0  0  0
  3  4  1  0  0  0
  4  5  1  0  0  0
  5 18  1  0  0  0
 18 19  1  0  0  0
 19 20  2  0  0  0
 20 21  1  0  0  0
 21 22  2  0  0  0
 22 23  1  0  0  0
 23 24  2  0  0  0
 18 25  1  0  0  0
 25 26  2  0  0  0
 26 27  1  0  0  0
 27 28  2  0  0  0
 28 29  1  0  0  0
 29 30  2  0  0  0
  5  6  1  0  0  0
  6  7  1  0  0  0
 12 13  1  0  0  0
 13 14  2  0  0  0
 14  9  1  0  0  0
  7  1  1  0  0  0
 24 19  1  0  0  0
 30 25  1  0  0  0
  2  8  1  0  0  0
M  END
> <minimizedAffinity>
-7.15931

> <CNNscore>
0.1223457977

> <CNNaffinity>
5.2520732880

> <CNN_VS>
0.6425691247

> <CNNaffinity_variance>
0.3088547289

$$$$
[H]N=C(c1c([H])c([H])c([H])c(Oc2nc(Oc3c([H])c([H])c([H])c(N([H])C(=O)C([H])([H])[H])c3[H])c(F)c(C([H])([H])[H])c2F)c1[H])N([H])[H]


 34 36  0  0  0  0  0  0  0  0999 V2000
  -89.9656   28.6639    0.7785 C   0  0  0  0  0  0  0  0  0  0  0  0
  -88.6149   28.5823    0.8511 N   0  0  0  0  0  0  0  0  0  0  0  0
  -87.7861   28.7966   -0.1735 C   0  0  0  0  0  0  0  0  0  0  0  0
  -88.3272   29.1256   -1.3991 C   0  0  0  0  0  0  0  0  0  0  0  0
  -87.4972   29.3489   -2.4591 F   0  0  0  0  0  0  0  0  0  0  0  0
  -89.6903   29.2285   -1.5553 C   0  0  0  0  0  0  0  0  0  0  0  0
  -90.2957   29.5811   -2.8637 C   0  0  0  0  0  0  0  0  0  0  0  0
  -90.4839   28.9936   -0.4548 C   0  0  0  0  0  0  0  0  0  0  0  0
  -91.8303   29.1076   -0.6614 F   0  0  0  0  0  0  0  0  0  0  0  0
  -90.7484   28.4312    1.8682 O   0  0  0  0  0  0  0  0  0  0  0  0
  -89.8326   25.5261    3.9153 C   0  0  0  0  0  0  0  0  0  0  0  0
  -89.7570   26.1562    5.1330 C   0  0  0  0  0  0  0  0  0  0  0  0
  -89.9956   27.5041    5.3131 C   0  0  0  0  0  0  0  0  0  0  0  0
  -90.3265   28.2825    4.2451 C   0  0  0  0  0  0  0  0  0  0  0  0
  -90.4180   27.7107    2.9992 C   0  0  0  0  0  0  0  0  0  0  0  0
  -90.1759   26.3702    2.8507 C   0  0  0  0  0  0  0  0  0  0  0  0
  -90.0706   21.7191    3.3034 C   0  0  0  0  0  0  0  0  0  0  0  0
  -90.5355   23.1233    3.5517 C   0  0  0  0  0  0  0  0  0  0  0  0
  -91.7590   23.2820    3.6306 O   0  0  0  0  0  0  0  0  0  0  0  0
  -89.6137   24.1507    3.6788 N   0  0  0  0  0  0  0  0  0  0  0  0
  -88.5675   23.8904    3.5932 H   0  0  0  0  0  0  0  0  0  0  0  0
  -86.4076   28.6871    0.0066 O   0  0  0  0  0  0  0  0  0  0  0  0
  -85.6673   29.6570    0.6542 C   0  0  0  0  0  0  0  0  0  0  0  0
  -85.4247   29.6406    2.0210 C   0  0  0  0  0  0  0  0  0  0  0  0
  -84.6818   30.6284    2.6187 C   0  0  0  0  0  0  0  0  0  0  0  0
  -84.1493   31.6787    1.8645 C   0  0  0  0  0  0  0  0  0  0  0  0
  -84.3733   31.7178    0.5204 C   0  0  0  0  0  0  0  0  0  0  0  0
  -85.1389   30.6916   -0.0675 C   0  0  0  0  0  0  0  0  0  0  0  0
  -83.8458   32.7836   -0.3178 C   0  0  0  0  0  0  0  0  0  0  0  0
  -82.6729   33.2328   -0.1662 N   0  0  0  0  0  0  0  0  0  0  0  0
  -84.6637   33.3371   -1.3337 N   0  0  0  0  0  0  0  0  0  0  0  0
  -82.0251   32.8875    0.5404 H   0  0  0  0  0  0  0  0  0  0  0  0
  -84.8519   34.3528   -1.3208 H   0  0  0  0  0  0  0  0  0  0  0  0
  -85.0583   32.7259   -2.0674 H   0  0  0  0  0  0  0  0  0  0  0  0
 17 18  1  0  0  0
 18 19  2  0  0  0
 18 20  1  0  0  0
 20 11  1  0  0  0
 11 12  2  0  0  0
 12 13  1  0  0  0
 13 14  2  0  0  0
 14 15  1  0  0  0
 15 10  1  0  0  0
 10  1  1  0  0  0
  1  2  2  0  0  0
  2  3  1  0  0  0
  3 22  1  0  0  0
 22 23  1  0  0  0
 23 24  2  0  0  0
 24 25  1  0  0  0
 25 26  2  0  0  0
 26 27  1  0  0  0
 27 29  1  0  0  0
 29 30  2  0  0  0
 29 31  1  0  0  0
 27 28  2  0  0  0
  3  4  2  0  0  0
  4  5  1  0  0  0
  4  6  1  0  0  0
  6  7  1  0  0  0
  6  8  2  0  0  0
  8  9  1  0  0  0
 15 16  2  0  0  0
 16 11  1  0  0  0
  8  1  1  0  0  0
 28 23  1  0  0  0
 20 21  1  0  0  0
 30 32  1  0  0  0
 31 33  1  0  0  0
 31 34  1  0  0  0
M  END
> <minimizedAffinity>
-9.97463

> <CNNscore>
0.3249463737

> <CNNaffinity>
6.5263128281

> <CNN_VS>
2.1207017899

> <CNNaffinity_variance>
0.2412929535

$$$$
[H]N=C(c1c([H])c([H])c([H])c(Oc2nc(Oc3c([H])c([H])c([H])c(N([H])C(=O)C([H])([H])[H])c3[H])c(F)c(C([H])([H])[H])c2F)c1[H])N([H])[H]


 34 36  0  0  0  0  0  0  0  0999 V2000
  -87.7905   32.0581   -1.2410 C   0  0  0  0  0  0  0  0  0  0  0  0
  -88.8220   31.3528   -0.7169 N   0  0  0  0  0  0  0  0  0  0  0  0
  -89.7194   30.6740   -1.4357 C   0  0  0  0  0  0  0  0  0  0  0  0
  -89.6019   30.6812   -2.8102 C   0  0  0  0  0  0  0  0  0  0  0  0
  -90.5088   29.9935   -3.5632 F   0  0  0  0  0  0  0  0  0  0  0  0
  -88.5814   31.3740   -3.4199 C   0  0  0  0  0  0  0  0  0  0  0  0
  -88.4345   31.3963   -4.8966 C   0  0  0  0  0  0  0  0  0  0  0  0
  -87.6927   32.0514   -2.6153 C   0  0  0  0  0  0  0  0  0  0  0  0
  -86.6981   32.7242   -3.2684 F   0  0  0  0  0  0  0  0  0  0  0  0
  -86.9128   32.7274   -0.4434 O   0  0  0  0  0  0  0  0  0  0  0  0
  -83.9132   30.8602    0.5488 C   0  0  0  0  0  0  0  0  0  0  0  0
  -82.9692   31.7792    0.1616 C   0  0  0  0  0  0  0  0  0  0  0  0
  -83.2767   32.9951   -0.4156 C   0  0  0  0  0  0  0  0  0  0  0  0
  -84.5790   33.3345   -0.6279 C   0  0  0  0  0  0  0  0  0  0  0  0
  -85.5707   32.4569   -0.2622 C   0  0  0  0  0  0  0  0  0  0  0  0
  -85.2355   31.2572    0.3089 C   0  0  0  0  0  0  0  0  0  0  0  0
  -83.7308   27.7255    2.7994 C   0  0  0  0  0  0  0  0  0  0  0  0
  -84.1523   29.0896    2.3398 C   0  0  0  0  0  0  0  0  0  0  0  0
  -84.9484   29.6857    3.0742 O   0  0  0  0  0  0  0  0  0  0  0  0
  -83.6540   29.6114    1.1562 N   0  0  0  0  0  0  0  0  0  0  0  0
  -82.9608   28.9973    0.5977 H   0  0  0  0  0  0  0  0  0  0  0  0
  -90.7459   29.9785   -0.7976 O   0  0  0  0  0  0  0  0  0  0  0  0
  -90.5045   28.8980    0.0285 C   0  0  0  0  0  0  0  0  0  0  0  0
  -90.9795   28.8166    1.3305 C   0  0  0  0  0  0  0  0  0  0  0  0
  -90.7128   27.7203    2.1126 C   0  0  0  0  0  0  0  0  0  0  0  0
  -89.9541   26.6553    1.6171 C   0  0  0  0  0  0  0  0  0  0  0  0
  -89.4760   26.7109    0.3417 C   0  0  0  0  0  0  0  0  0  0  0  0
  -89.7644   27.8474   -0.4394 C   0  0  0  0  0  0  0  0  0  0  0  0
  -88.6815   25.6349   -0.2309 C   0  0  0  0  0  0  0  0  0  0  0  0
  -88.7675   24.4453    0.1907 N   0  0  0  0  0  0  0  0  0  0  0  0
  -87.7856   25.9216   -1.2903 N   0  0  0  0  0  0  0  0  0  0  0  0
  -89.3874   24.1599    0.9474 H   0  0  0  0  0  0  0  0  0  0  0  0
  -86.7855   25.6923   -1.1702 H   0  0  0  0  0  0  0  0  0  0  0  0
  -88.1383   26.3517   -2.1611 H   0  0  0  0  0  0  0  0  0  0  0  0
 17 18  1  0  0  0
 18 19  2  0  0  0
 18 20  1  0  0  0
 20 11  1  0  0  0
 11 12  2  0  0  0
 12 13  1  0  0  0
 13 14  2  0  0  0
 14 15  1  0  0  0
 15 10  1  0  0  0
 10  1  1  0  0  0
  1  2  2  0  0  0
  2  3  1  0  0  0
  3 22  1  0  0  0
 22 23  1  0  0  0
 23 24  2  0  0  0
 24 25  1  0  0  0
 25 26  2  0  0  0
 26 27  1  0  0  0
 27 29  1  0  0  0
 29 30  2  0  0  0
 29 31  1  0  0  0
 27 28  2  0  0  0
  3  4  2  0  0  0
  4  5  1  0  0  0
  4  6  1  0  0  0
  6  7  1  0  0  0
  6  8  2  0  0  0
  8  9  1  0  0  0
 15 16  2  0  0  0
 16 11  1  0  0  0
  8  1  1  0  0  0
 28 23  1  0  0  0
 20 21  1  0  0  0
 30 32  1  0  0  0
 31 33  1  0  0  0
 31 34  1  0  0  0
M  END
> <minimizedAffinity>
-9.49610

> <CNNscore>
0.2642612159

> <CNNaffinity>
6.0138401985

> <CNN_VS>
1.5892246962

> <CNNaffinity_variance>
1.5221655369

$$$$
[H]N=C(c1c([H])c([H])c([H])c(Oc2nc(Oc3c([H])c([H])c([H])c(N([H])C(=O)C([H])([H])[H])c3[H])c(F)c(C([H])([H])[H])c2F)c1[H])N([H])[H]


 34 36  0  0  0  0  0  0  0  0999 V2000
  -85.9101   31.5880    0.0996 C   0  0  0  0  0  0  0  0  0  0  0  0
  -86.1458   30.3651    0.6336 N   0  0  0  0  0  0  0  0  0  0  0  0
  -85.2062   29.5685    1.1486 C   0  0  0  0  0  0  0  0  0  0  0  0
  -83.8981   30.0069    1.1445 C   0  0  0  0  0  0  0  0  0  0  0  0
  -82.9227   29.2079    1.6664 F   0  0  0  0  0  0  0  0  0  0  0  0
  -83.5761   31.2375    0.6202 C   0  0  0  0  0  0  0  0  0  0  0  0
  -82.1764   31.7307    0.6047 C   0  0  0  0  0  0  0  0  0  0  0  0
  -84.5970   32.0053    0.1060 C   0  0  0  0  0  0  0  0  0  0  0  0
  -84.2259   33.2183   -0.4033 F   0  0  0  0  0  0  0  0  0  0  0  0
  -86.9213   32.3456   -0.4083 O   0  0  0  0  0  0  0  0  0  0  0  0
  -89.9092   32.2422   -2.5367 C   0  0  0  0  0  0  0  0  0  0  0  0
  -90.5256   31.1578   -1.9626 C   0  0  0  0  0  0  0  0  0  0  0  0
  -89.9990   30.4531   -0.8984 C   0  0  0  0  0  0  0  0  0  0  0  0
  -88.8030   30.8267   -0.3635 C   0  0  0  0  0  0  0  0  0  0  0  0
  -88.1364   31.9045   -0.8943 C   0  0  0  0  0  0  0  0  0  0  0  0
  -88.6835   32.5850   -1.9504 C   0  0  0  0  0  0  0  0  0  0  0  0
  -91.5586   33.5901   -5.7597 C   0  0  0  0  0  0  0  0  0  0  0  0
  -91.1267   32.5923   -4.7265 C   0  0  0  0  0  0  0  0  0  0  0  0
  -91.4493   31.4181   -4.9404 O   0  0  0  0  0  0  0  0  0  0  0  0
  -90.4104   33.0061   -3.6142 N   0  0  0  0  0  0  0  0  0  0  0  0
  -90.1842   34.0607   -3.5354 H   0  0  0  0  0  0  0  0  0  0  0  0
  -85.5543   28.3249    1.6749 O   0  0  0  0  0  0  0  0  0  0  0  0
  -86.8010   27.7627    1.4806 C   0  0  0  0  0  0  0  0  0  0  0  0
  -87.7299   27.6046    2.5002 C   0  0  0  0  0  0  0  0  0  0  0  0
  -88.9573   27.0397    2.2564 C   0  0  0  0  0  0  0  0  0  0  0  0
  -89.3039   26.6080    0.9724 C   0  0  0  0  0  0  0  0  0  0  0  0
  -88.4093   26.7519   -0.0461 C   0  0  0  0  0  0  0  0  0  0  0  0
  -87.1571   27.3348    0.2314 C   0  0  0  0  0  0  0  0  0  0  0  0
  -88.7113   26.3229   -1.4032 C   0  0  0  0  0  0  0  0  0  0  0  0
  -88.8224   25.0999   -1.7069 N   0  0  0  0  0  0  0  0  0  0  0  0
  -88.8873   27.2975   -2.4163 N   0  0  0  0  0  0  0  0  0  0  0  0
  -88.7104   24.3411   -1.0361 H   0  0  0  0  0  0  0  0  0  0  0  0
  -88.2844   27.2568   -3.2542 H   0  0  0  0  0  0  0  0  0  0  0  0
  -89.6082   28.0297   -2.3071 H   0  0  0  0  0  0  0  0  0  0  0  0
 17 18  1  0  0  0
 18 19  2  0  0  0
 18 20  1  0  0  0
 20 11  1  0  0  0
 11 12  2  0  0  0
 12 13  1  0  0  0
 13 14  2  0  0  0
 14 15  1  0  0  0
 15 10  1  0  0  0
 10  1  1  0  0  0
  1  2  2  0  0  0
  2  3  1  0  0  0
  3 22  1  0  0  0
 22 23  1  0  0  0
 23 24  2  0  0  0
 24 25  1  0  0  0
 25 26  2  0  0  0
 26 27  1  0  0  0
 27 29  1  0  0  0
 29 30  2  0  0  0
 29 31  1  0  0  0
 27 28  2  0  0  0
  3  4  2  0  0  0
  4  5  1  0  0  0
  4  6  1  0  0  0
  6  7  1  0  0  0
  6  8  2  0  0  0
  8  9  1  0  0  0
 15 16  2  0  0  0
 16 11  1  0  0  0
  8  1  1  0  0  0
 28 23  1  0  0  0
 20 21  1  0  0  0
 30 32  1  0  0  0
 31 33  1  0  0  0
 31 34  1  0  0  0
M  END
> <minimizedAffinity>
-8.71192

> <CNNscore>
0.2635339499

> <CNNaffinity>
6.3969669342

> <CNN_VS>
1.6858179569

> <CNNaffinity_variance>
0.4318914413

$$$$
[H]N=C(c1c([H])c([H])c([H])c(Oc2nc(Oc3c([H])c([H])c([H])c(N([H])C(=O)C([H])([H])[H])c3[H])c(F)c(C([H])([H])[H])c2F)c1[H])N([H])[H]


 34 36  0  0  0  0  0  0  0  0999 V2000
  -85.7409   29.7662    0.7006 C   0  0  0  0  0  0  0  0  0  0  0  0
  -86.5484   30.7169    0.1710 N   0  0  0  0  0  0  0  0  0  0  0  0
  -86.1420   31.9296   -0.2122 C   0  0  0  0  0  0  0  0  0  0  0  0
  -84.8089   32.2531   -0.0653 C   0  0  0  0  0  0  0  0  0  0  0  0
  -84.3732   33.4874   -0.4511 F   0  0  0  0  0  0  0  0  0  0  0  0
  -83.9240   31.3425    0.4647 C   0  0  0  0  0  0  0  0  0  0  0  0
  -82.4857   31.6674    0.6323 C   0  0  0  0  0  0  0  0  0  0  0  0
  -84.4140   30.1110    0.8381 C   0  0  0  0  0  0  0  0  0  0  0  0
  -83.4961   29.2426    1.3593 F   0  0  0  0  0  0  0  0  0  0  0  0
  -86.2277   28.5491    1.0693 O   0  0  0  0  0  0  0  0  0  0  0  0
  -89.1168   26.3096    1.3960 C   0  0  0  0  0  0  0  0  0  0  0  0
  -89.9703   26.9589    0.5385 C   0  0  0  0  0  0  0  0  0  0  0  0
  -89.6363   28.1092   -0.1481 C   0  0  0  0  0  0  0  0  0  0  0  0
  -88.3995   28.6582    0.0105 C   0  0  0  0  0  0  0  0  0  0  0  0
  -87.4996   28.0552    0.8555 C   0  0  0  0  0  0  0  0  0  0  0  0
  -87.8590   26.9141    1.5238 C   0  0  0  0  0  0  0  0  0  0  0  0
  -90.3059   23.5866    3.8651 C   0  0  0  0  0  0  0  0  0  0  0  0
  -90.1333   24.9548    3.2751 C   0  0  0  0  0  0  0  0  0  0  0  0
  -90.6750   25.8809    3.8893 O   0  0  0  0  0  0  0  0  0  0  0  0
  -89.4021   25.1243    2.1098 N   0  0  0  0  0  0  0  0  0  0  0  0
  -88.9722   24.2388    1.6619 H   0  0  0  0  0  0  0  0  0  0  0  0
  -87.0555   32.8374   -0.7469 O   0  0  0  0  0  0  0  0  0  0  0  0
  -87.6574   32.6438   -1.9751 C   0  0  0  0  0  0  0  0  0  0  0  0
  -87.1460   33.1549   -3.1603 C   0  0  0  0  0  0  0  0  0  0  0  0
  -87.7815   32.9345   -4.3572 C   0  0  0  0  0  0  0  0  0  0  0  0
  -88.9628   32.1883   -4.4133 C   0  0  0  0  0  0  0  0  0  0  0  0
  -89.4855   31.6756   -3.2635 C   0  0  0  0  0  0  0  0  0  0  0  0
  -88.8133   31.9166   -2.0490 C   0  0  0  0  0  0  0  0  0  0  0  0
  -90.7107   30.8910   -3.2570 C   0  0  0  0  0  0  0  0  0  0  0  0
  -90.7258   29.6750   -3.6058 N   0  0  0  0  0  0  0  0  0  0  0  0
  -91.9231   31.5002   -2.8493 N   0  0  0  0  0  0  0  0  0  0  0  0
  -89.8969   29.1668   -3.9109 H   0  0  0  0  0  0  0  0  0  0  0  0
  -92.7219   31.5028   -3.5043 H   0  0  0  0  0  0  0  0  0  0  0  0
  -91.9940   31.9301   -1.9124 H   0  0  0  0  0  0  0  0  0  0  0  0
 17 18  1  0  0  0
 18 19  2  0  0  0
 18 20  1  0  0  0
 20 11  1  0  0  0
 11 12  2  0  0  0
 12 13  1  0  0  0
 13 14  2  0  0  0
 14 15  1  0  0  0
 15 10  1  0  0  0
 10  1  1  0  0  0
  1  2  2  0  0  0
  2  3  1  0  0  0
  3 22  1  0  0  0
 22 23  1  0  0  0
 23 24  2  0  0  0
 24 25  1  0  0  0
 25 26  2  0  0  0
 26 27  1  0  0  0
 27 29  1  0  0  0
 29 30  2  0  0  0
 29 31  1  0  0  0
 27 28  2  0  0  0
  3  4  2  0  0  0
  4  5  1  0  0  0
  4  6  1  0  0  0
  6  7  1  0  0  0
  6  8  2  0  0  0
  8  9  1  0  0  0
 15 16  2  0  0  0
 16 11  1  0  0  0
  8  1  1  0  0  0
 28 23  1  0  0  0
 20 21  1  0  0  0
 30 32  1  0  0  0
 31 33  1  0  0  0
 31 34  1  0  0  0
M  END
> <minimizedAffinity>
-8.79366

> <CNNscore>
0.2559422851

> <CNNaffinity>
6.5523872375

> <CNN_VS>
1.6770329475

> <CNNaffinity_variance>
0.2676621079

$$$$
[H]N=C(c1c([H])c([H])c([H])c(Oc2nc(Oc3c([H])c([H])c([H])c(N([H])C(=O)C([H])([H])[H])c3[H])c(F)c(C([H])([H])[H])c2F)c1[H])N([H])[H]


 34 36  0  0  0  0  0  0  0  0999 V2000
  -86.3607   30.5253    0.2337 C   0  0  0  0  0  0  0  0  0  0  0  0
  -86.5462   29.2443    0.6345 N   0  0  0  0  0  0  0  0  0  0  0  0
  -85.6231   28.5007    1.2493 C   0  0  0  0  0  0  0  0  0  0  0  0
  -84.3883   29.0619    1.5017 C   0  0  0  0  0  0  0  0  0  0  0  0
  -83.4311   28.3188    2.1292 F   0  0  0  0  0  0  0  0  0  0  0  0
  -84.1207   30.3580    1.1258 C   0  0  0  0  0  0  0  0  0  0  0  0
  -82.8002   30.9832    1.3865 C   0  0  0  0  0  0  0  0  0  0  0  0
  -85.1204   31.0651    0.4958 C   0  0  0  0  0  0  0  0  0  0  0  0
  -84.8052   32.3472    0.1420 F   0  0  0  0  0  0  0  0  0  0  0  0
  -87.3507   31.2226   -0.3892 O   0  0  0  0  0  0  0  0  0  0  0  0
  -87.2372   33.0454   -3.5724 C   0  0  0  0  0  0  0  0  0  0  0  0
  -87.7131   32.0497   -4.3894 C   0  0  0  0  0  0  0  0  0  0  0  0
  -88.0727   30.7956   -3.9374 C   0  0  0  0  0  0  0  0  0  0  0  0
  -87.9618   30.4949   -2.6133 C   0  0  0  0  0  0  0  0  0  0  0  0
  -87.4915   31.4494   -1.7442 C   0  0  0  0  0  0  0  0  0  0  0  0
  -87.1423   32.6855   -2.2214 C   0  0  0  0  0  0  0  0  0  0  0  0
  -86.9783   36.8178   -4.3644 C   0  0  0  0  0  0  0  0  0  0  0  0
  -87.5668   35.5385   -3.8479 C   0  0  0  0  0  0  0  0  0  0  0  0
  -88.6793   35.6307   -3.3165 O   0  0  0  0  0  0  0  0  0  0  0  0
  -86.8702   34.3473   -3.9799 N   0  0  0  0  0  0  0  0  0  0  0  0
  -85.9047   34.3898   -4.4652 H   0  0  0  0  0  0  0  0  0  0  0  0
  -85.9152   27.1891    1.6218 O   0  0  0  0  0  0  0  0  0  0  0  0
  -87.1691   26.6344    1.4529 C   0  0  0  0  0  0  0  0  0  0  0  0
  -88.0593   26.4373    2.4998 C   0  0  0  0  0  0  0  0  0  0  0  0
  -89.2956   25.8819    2.2808 C   0  0  0  0  0  0  0  0  0  0  0  0
  -89.6907   25.4996    0.9950 C   0  0  0  0  0  0  0  0  0  0  0  0
  -88.8347   25.6825   -0.0500 C   0  0  0  0  0  0  0  0  0  0  0  0
  -87.5722   26.2546    0.2024 C   0  0  0  0  0  0  0  0  0  0  0  0
  -89.1879   25.3059   -1.4103 C   0  0  0  0  0  0  0  0  0  0  0  0
  -89.3354   24.0963   -1.7503 N   0  0  0  0  0  0  0  0  0  0  0  0
  -89.3734   26.3174   -2.3847 N   0  0  0  0  0  0  0  0  0  0  0  0
  -89.2196   23.3133   -1.1087 H   0  0  0  0  0  0  0  0  0  0  0  0
  -88.7977   26.2920   -3.2421 H   0  0  0  0  0  0  0  0  0  0  0  0
  -90.0741   27.0605   -2.2289 H   0  0  0  0  0  0  0  0  0  0  0  0
 17 18  1  0  0  0
 18 19  2  0  0  0
 18 20  1  0  0  0
 20 11  1  0  0  0
 11 12  2  0  0  0
 12 13  1  0  0  0
 13 14  2  0  0  0
 14 15  1  0  0  0
 15 10  1  0  0  0
 10  1  1  0  0  0
  1  2  2  0  0  0
  2  3  1  0  0  0
  3 22  1  0  0  0
 22 23  1  0  0  0
 23 24  2  0  0  0
 24 25  1  0  0  0
 25 26  2  0  0  0
 26 27  1  0  0  0
 27 29  1  0  0  0
 29 30  2  0  0  0
 29 31  1  0  0  0
 27 28  2  0  0  0
  3  4  2  0  0  0
  4  5  1  0  0  0
  4  6  1  0  0  0
  6  7  1  0  0  0
  6  8  2  0  0  0
  8  9  1  0  0  0
 15 16  2  0  0  0
 16 11  1  0  0  0
  8  1  1  0  0  0
 28 23  1  0  0  0
 20 21  1  0  0  0
 30 32  1  0  0  0
 31 33  1  0  0  0
 31 34  1  0  0  0
M  END
> <minimizedAffinity>
-9.58403

> <CNNscore>
0.2303010672

> <CNNaffinity>
6.1625347137

> <CNN_VS>
1.4192383289

> <CNNaffinity_variance>
0.7521093488

$$$$
[H]N=C(c1c([H])c([H])c([H])c(Oc2nc(Oc3c([H])c([H])c([H])c(N([H])C(=O)C([H])([H])[H])c3[H])c(F)c(C([H])([H])[H])c2F)c1[H])N([H])[H]


 34 36  0  0  0  0  0  0  0  0999 V2000
  -85.4569   29.1522    1.0756 C   0  0  0  0  0  0  0  0  0  0  0  0
  -86.4336   29.9000    0.5075 N   0  0  0  0  0  0  0  0  0  0  0  0
  -86.2619   31.1345    0.0284 C   0  0  0  0  0  0  0  0  0  0  0  0
  -85.0074   31.7027    0.1099 C   0  0  0  0  0  0  0  0  0  0  0  0
  -84.8109   32.9634   -0.3741 F   0  0  0  0  0  0  0  0  0  0  0  0
  -83.9619   31.0081    0.6733 C   0  0  0  0  0  0  0  0  0  0  0  0
  -82.6037   31.5982    0.7720 C   0  0  0  0  0  0  0  0  0  0  0  0
  -84.2125   29.7395    1.1466 C   0  0  0  0  0  0  0  0  0  0  0  0
  -83.1423   29.0916    1.6972 F   0  0  0  0  0  0  0  0  0  0  0  0
  -85.7071   27.8979    1.5431 O   0  0  0  0  0  0  0  0  0  0  0  0
  -88.5281   25.6336    0.9239 C   0  0  0  0  0  0  0  0  0  0  0  0
  -89.3368   26.0351    1.9585 C   0  0  0  0  0  0  0  0  0  0  0  0
  -88.9938   27.0248    2.8580 C   0  0  0  0  0  0  0  0  0  0  0  0
  -87.7937   27.6593    2.7425 C   0  0  0  0  0  0  0  0  0  0  0  0
  -86.9394   27.3024    1.7275 C   0  0  0  0  0  0  0  0  0  0  0  0
  -87.3067   26.3166    0.8494 C   0  0  0  0  0  0  0  0  0  0  0  0
  -89.8848   23.5007   -1.9976 C   0  0  0  0  0  0  0  0  0  0  0  0
  -89.7105   24.6938   -1.1055 C   0  0  0  0  0  0  0  0  0  0  0  0
  -90.3839   25.6892   -1.3960 O   0  0  0  0  0  0  0  0  0  0  0  0
  -88.8362   24.6394   -0.0313 N   0  0  0  0  0  0  0  0  0  0  0  0
  -88.3019   23.7123    0.1255 H   0  0  0  0  0  0  0  0  0  0  0  0
  -87.3353   31.8209   -0.5386 O   0  0  0  0  0  0  0  0  0  0  0  0
  -87.5650   31.8383   -1.9006 C   0  0  0  0  0  0  0  0  0  0  0  0
  -87.8381   30.6950   -2.6392 C   0  0  0  0  0  0  0  0  0  0  0  0
  -88.0600   30.7642   -3.9923 C   0  0  0  0  0  0  0  0  0  0  0  0
  -88.0165   31.9906   -4.6627 C   0  0  0  0  0  0  0  0  0  0  0  0
  -87.7503   33.1281   -3.9601 C   0  0  0  0  0  0  0  0  0  0  0  0
  -87.5264   33.0288   -2.5726 C   0  0  0  0  0  0  0  0  0  0  0  0
  -87.6920   34.4333   -4.6003 C   0  0  0  0  0  0  0  0  0  0  0  0
  -88.5709   34.8095   -5.4289 N   0  0  0  0  0  0  0  0  0  0  0  0
  -86.6242   35.3114   -4.2906 N   0  0  0  0  0  0  0  0  0  0  0  0
  -89.3678   34.2366   -5.7028 H   0  0  0  0  0  0  0  0  0  0  0  0
  -86.0238   35.6529   -5.0588 H   0  0  0  0  0  0  0  0  0  0  0  0
  -86.4597   35.5971   -3.3114 H   0  0  0  0  0  0  0  0  0  0  0  0
 17 18  1  0  0  0
 18 19  2  0  0  0
 18 20  1  0  0  0
 20 11  1  0  0  0
 11 12  2  0  0  0
 12 13  1  0  0  0
 13 14  2  0  0  0
 14 15  1  0  0  0
 15 10  1  0  0  0
 10  1  1  0  0  0
  1  2  2  0  0  0
  2  3  1  0  0  0
  3 22  1  0  0  0
 22 23  1  0  0  0
 23 24  2  0  0  0
 24 25  1  0  0  0
 25 26  2  0  0  0
 26 27  1  0  0  0
 27 29  1  0  0  0
 29 30  2  0  0  0
 29 31  1  0  0  0
 27 28  2  0  0  0
  3  4  2  0  0  0
  4  5  1  0  0  0
  4  6  1  0  0  0
  6  7  1  0  0  0
  6  8  2  0  0  0
  8  9  1  0  0  0
 15 16  2  0  0  0
 16 11  1  0  0  0
  8  1  1  0  0  0
 28 23  1  0  0  0
 20 21  1  0  0  0
 30 32  1  0  0  0
 31 33  1  0  0  0
 31 34  1  0  0  0
M  END
> <minimizedAffinity>
-9.43542

> <CNNscore>
0.2281304449

> <CNNaffinity>
6.2802762985

> <CNN_VS>
1.4327222109

> <CNNaffinity_variance>
0.5801418424

$$$$
[H]N=C(c1c([H])c([H])c([H])c(Oc2nc(Oc3c([H])c([H])c([H])c(N([H])C(=O)C([H])([H])[H])c3[H])c(F)c(C([H])([H])[H])c2F)c1[H])N([H])[H]


 34 36  0  0  0  0  0  0  0  0999 V2000
  -85.3279   29.6213    0.4915 C   0  0  0  0  0  0  0  0  0  0  0  0
  -86.3486   30.4000    0.0579 N   0  0  0  0  0  0  0  0  0  0  0  0
  -86.2466   31.7039   -0.2105 C   0  0  0  0  0  0  0  0  0  0  0  0
  -85.0223   32.3165   -0.0397 C   0  0  0  0  0  0  0  0  0  0  0  0
  -84.8969   33.6484   -0.3089 F   0  0  0  0  0  0  0  0  0  0  0  0
  -83.9357   31.5947    0.3977 C   0  0  0  0  0  0  0  0  0  0  0  0
  -82.6088   32.2315    0.5889 C   0  0  0  0  0  0  0  0  0  0  0  0
  -84.1148   30.2539    0.6551 C   0  0  0  0  0  0  0  0  0  0  0  0
  -83.0061   29.5815    1.0876 F   0  0  0  0  0  0  0  0  0  0  0  0
  -85.5074   28.2955    0.7455 O   0  0  0  0  0  0  0  0  0  0  0  0
  -88.4650   26.5737    2.0709 C   0  0  0  0  0  0  0  0  0  0  0  0
  -89.0376   26.2127    0.8761 C   0  0  0  0  0  0  0  0  0  0  0  0
  -88.4908   26.5122   -0.3558 C   0  0  0  0  0  0  0  0  0  0  0  0
  -87.3189   27.2034   -0.4272 C   0  0  0  0  0  0  0  0  0  0  0  0
  -86.6965   27.5934    0.7339 C   0  0  0  0  0  0  0  0  0  0  0  0
  -87.2626   27.2819    1.9424 C   0  0  0  0  0  0  0  0  0  0  0  0
  -90.2229   26.5208    5.5106 C   0  0  0  0  0  0  0  0  0  0  0  0
  -89.8087   27.0353    4.1639 C   0  0  0  0  0  0  0  0  0  0  0  0
  -90.2559   28.1436    3.8475 O   0  0  0  0  0  0  0  0  0  0  0  0
  -88.9733   26.2801    3.3558 N   0  0  0  0  0  0  0  0  0  0  0  0
  -88.6433   25.3248    3.7407 H   0  0  0  0  0  0  0  0  0  0  0  0
  -87.3605   32.4168   -0.6528 O   0  0  0  0  0  0  0  0  0  0  0  0
  -87.5165   32.8017   -1.9703 C   0  0  0  0  0  0  0  0  0  0  0  0
  -87.7473   31.9018   -3.0020 C   0  0  0  0  0  0  0  0  0  0  0  0
  -87.8960   32.3341   -4.2965 C   0  0  0  0  0  0  0  0  0  0  0  0
  -87.8185   33.6947   -4.6099 C   0  0  0  0  0  0  0  0  0  0  0  0
  -87.5926   34.5987   -3.6148 C   0  0  0  0  0  0  0  0  0  0  0  0
  -87.4437   34.1282   -2.2952 C   0  0  0  0  0  0  0  0  0  0  0  0
  -87.5022   36.0269   -3.8772 C   0  0  0  0  0  0  0  0  0  0  0  0
  -88.2629   36.8596   -3.3044 N   0  0  0  0  0  0  0  0  0  0  0  0
  -86.5372   36.5037   -4.7984 N   0  0  0  0  0  0  0  0  0  0  0  0
  -88.9804   36.5957   -2.6307 H   0  0  0  0  0  0  0  0  0  0  0  0
  -86.8571   37.0555   -5.6110 H   0  0  0  0  0  0  0  0  0  0  0  0
  -85.5360   36.2966   -4.6490 H   0  0  0  0  0  0  0  0  0  0  0  0
 17 18  1  0  0  0
 18 19  2  0  0  0
 18 20  1  0  0  0
 20 11  1  0  0  0
 11 12  2  0  0  0
 12 13  1  0  0  0
 13 14  2  0  0  0
 14 15  1  0  0  0
 15 10  1  0  0  0
 10  1  1  0  0  0
  1  2  2  0  0  0
  2  3  1  0  0  0
  3 22  1  0  0  0
 22 23  1  0  0  0
 23 24  2  0  0  0
 24 25  1  0  0  0
 25 26  2  0  0  0
 26 27  1  0  0  0
 27 29  1  0  0  0
 29 30  2  0  0  0
 29 31  1  0  0  0
 27 28  2  0  0  0
  3  4  2  0  0  0
  4  5  1  0  0  0
  4  6  1  0  0  0
  6  7  1  0  0  0
  6  8  2  0  0  0
  8  9  1  0  0  0
 15 16  2  0  0  0
 16 11  1  0  0  0
  8  1  1  0  0  0
 28 23  1  0  0  0
 20 21  1  0  0  0
 30 32  1  0  0  0
 31 33  1  0  0  0
 31 34  1  0  0  0
M  END
> <minimizedAffinity>
-9.01628

> <CNNscore>
0.2212829292

> <CNNaffinity>
6.4343199730

> <CNN_VS>
1.4238051176

> <CNNaffinity_variance>
0.3921232522

$$$$
[H]N=C(c1c([H])c([H])c([H])c(Oc2nc(Oc3c([H])c([H])c([H])c(N([H])C(=O)C([H])([H])[H])c3[H])c(F)c(C([H])([H])[H])c2F)c1[H])N([H])[H]


 34 36  0  0  0  0  0  0  0  0999 V2000
  -85.8904   30.2031    0.4522 C   0  0  0  0  0  0  0  0  0  0  0  0
  -86.5650   31.2709   -0.0387 N   0  0  0  0  0  0  0  0  0  0  0  0
  -86.0018   32.4325   -0.3795 C   0  0  0  0  0  0  0  0  0  0  0  0
  -84.6377   32.5714   -0.2273 C   0  0  0  0  0  0  0  0  0  0  0  0
  -84.0425   33.7506   -0.5700 F   0  0  0  0  0  0  0  0  0  0  0  0
  -83.8810   31.5331    0.2651 C   0  0  0  0  0  0  0  0  0  0  0  0
  -82.4123   31.6588    0.4377 C   0  0  0  0  0  0  0  0  0  0  0  0
  -84.5296   30.3643    0.5959 C   0  0  0  0  0  0  0  0  0  0  0  0
  -83.7346   29.3637    1.0809 F   0  0  0  0  0  0  0  0  0  0  0  0
  -86.5339   29.0483    0.7787 O   0  0  0  0  0  0  0  0  0  0  0  0
  -89.3830   26.8507    0.0566 C   0  0  0  0  0  0  0  0  0  0  0  0
  -89.3913   26.9778   -1.3106 C   0  0  0  0  0  0  0  0  0  0  0  0
  -88.4951   27.7597   -2.0118 C   0  0  0  0  0  0  0  0  0  0  0  0
  -87.5361   28.4580   -1.3418 C   0  0  0  0  0  0  0  0  0  0  0  0
  -87.4757   28.3724    0.0281 C   0  0  0  0  0  0  0  0  0  0  0  0
  -88.3784   27.5882    0.6973 C   0  0  0  0  0  0  0  0  0  0  0  0
  -91.4014   24.0358    1.7675 C   0  0  0  0  0  0  0  0  0  0  0  0
  -90.3769   24.6738    0.8770 C   0  0  0  0  0  0  0  0  0  0  0  0
  -89.6694   23.8980    0.2242 O   0  0  0  0  0  0  0  0  0  0  0  0
  -90.2651   26.0542    0.8203 N   0  0  0  0  0  0  0  0  0  0  0  0
  -90.9413   26.6313    1.4363 H   0  0  0  0  0  0  0  0  0  0  0  0
  -86.7872   33.4720   -0.8766 O   0  0  0  0  0  0  0  0  0  0  0  0
  -87.2843   33.4718   -2.1655 C   0  0  0  0  0  0  0  0  0  0  0  0
  -88.0446   32.4332   -2.6858 C   0  0  0  0  0  0  0  0  0  0  0  0
  -88.5166   32.4799   -3.9742 C   0  0  0  0  0  0  0  0  0  0  0  0
  -88.2430   33.5768   -4.7972 C   0  0  0  0  0  0  0  0  0  0  0  0
  -87.4986   34.6095   -4.3100 C   0  0  0  0  0  0  0  0  0  0  0  0
  -87.0266   34.5363   -2.9845 C   0  0  0  0  0  0  0  0  0  0  0  0
  -87.1808   35.7780   -5.1166 C   0  0  0  0  0  0  0  0  0  0  0  0
  -87.5961   35.9007   -6.3052 N   0  0  0  0  0  0  0  0  0  0  0  0
  -86.3852   36.8099   -4.5605 N   0  0  0  0  0  0  0  0  0  0  0  0
  -88.1720   35.2036   -6.7749 H   0  0  0  0  0  0  0  0  0  0  0  0
  -85.5085   37.0733   -5.0393 H   0  0  0  0  0  0  0  0  0  0  0  0
  -86.6871   37.2821   -3.6924 H   0  0  0  0  0  0  0  0  0  0  0  0
 17 18  1  0  0  0
 18 19  2  0  0  0
 18 20  1  0  0  0
 20 11  1  0  0  0
 11 12  2  0  0  0
 12 13  1  0  0  0
 13 14  2  0  0  0
 14 15  1  0  0  0
 15 10  1  0  0  0
 10  1  1  0  0  0
  1  2  2  0  0  0
  2  3  1  0  0  0
  3 22  1  0  0  0
 22 23  1  0  0  0
 23 24  2  0  0  0
 24 25  1  0  0  0
 25 26  2  0  0  0
 26 27  1  0  0  0
 27 29  1  0  0  0
 29 30  2  0  0  0
 29 31  1  0  0  0
 27 28  2  0  0  0
  3  4  2  0  0  0
  4  5  1  0  0  0
  4  6  1  0  0  0
  6  7  1  0  0  0
  6  8  2  0  0  0
  8  9  1  0  0  0
 15 16  2  0  0  0
 16 11  1  0  0  0
  8  1  1  0  0  0
 28 23  1  0  0  0
 20 21  1  0  0  0
 30 32  1  0  0  0
 31 33  1  0  0  0
 31 34  1  0  0  0
M  END
> <minimizedAffinity>
-8.73194

> <CNNscore>
0.2043408900

> <CNNaffinity>
6.1792688370

> <CNN_VS>
1.2626773119

> <CNNaffinity_variance>
0.5227231383

$$$$
[H]N=C(c1c([H])c([H])c([H])c(Oc2nc(Oc3c([H])c([H])c([H])c(N([H])C(=O)C([H])([H])[H])c3[H])c(F)c(C([H])([H])[H])c2F)c1[H])N([H])[H]


 34 36  0  0  0  0  0  0  0  0999 V2000
  -85.1461   31.0599    0.4494 C   0  0  0  0  0  0  0  0  0  0  0  0
  -86.2126   30.2611    0.6956 N   0  0  0  0  0  0  0  0  0  0  0  0
  -86.1521   29.0914    1.3365 C   0  0  0  0  0  0  0  0  0  0  0  0
  -84.9245   28.6510    1.7863 C   0  0  0  0  0  0  0  0  0  0  0  0
  -84.8412   27.4581    2.4439 F   0  0  0  0  0  0  0  0  0  0  0  0
  -83.7927   29.4044    1.5758 C   0  0  0  0  0  0  0  0  0  0  0  0
  -82.4614   28.9515    2.0503 C   0  0  0  0  0  0  0  0  0  0  0  0
  -83.9306   30.6003    0.9073 C   0  0  0  0  0  0  0  0  0  0  0  0
  -82.7776   31.3109    0.7228 F   0  0  0  0  0  0  0  0  0  0  0  0
  -85.2848   32.2422   -0.2120 O   0  0  0  0  0  0  0  0  0  0  0  0
  -87.1448   33.9767   -2.8579 C   0  0  0  0  0  0  0  0  0  0  0  0
  -88.4119   33.5898   -2.4972 C   0  0  0  0  0  0  0  0  0  0  0  0
  -88.6849   32.7777   -1.4145 C   0  0  0  0  0  0  0  0  0  0  0  0
  -87.6642   32.3162   -0.6391 C   0  0  0  0  0  0  0  0  0  0  0  0
  -86.3727   32.6680   -0.9484 C   0  0  0  0  0  0  0  0  0  0  0  0
  -86.1320   33.4756   -2.0291 C   0  0  0  0  0  0  0  0  0  0  0  0
  -86.6880   36.8409   -5.4098 C   0  0  0  0  0  0  0  0  0  0  0  0
  -87.1556   36.1403   -4.1688 C   0  0  0  0  0  0  0  0  0  0  0  0
  -87.8448   36.8141   -3.3944 O   0  0  0  0  0  0  0  0  0  0  0  0
  -86.8122   34.8163   -3.9442 N   0  0  0  0  0  0  0  0  0  0  0  0
  -86.2057   34.3281   -4.6948 H   0  0  0  0  0  0  0  0  0  0  0  0
  -87.3115   28.3435    1.5393 O   0  0  0  0  0  0  0  0  0  0  0  0
  -88.0237   27.7861    0.4951 C   0  0  0  0  0  0  0  0  0  0  0  0
  -87.7087   26.5569   -0.0680 C   0  0  0  0  0  0  0  0  0  0  0  0
  -88.4479   26.0447   -1.1053 C   0  0  0  0  0  0  0  0  0  0  0  0
  -89.5394   26.7494   -1.6225 C   0  0  0  0  0  0  0  0  0  0  0  0
  -89.8693   27.9588   -1.0871 C   0  0  0  0  0  0  0  0  0  0  0  0
  -89.0941   28.4613   -0.0233 C   0  0  0  0  0  0  0  0  0  0  0  0
  -90.9935   28.7393   -1.5811 C   0  0  0  0  0  0  0  0  0  0  0  0
  -90.9636   29.3117   -2.7088 N   0  0  0  0  0  0  0  0  0  0  0  0
  -92.1563   28.8646   -0.7815 N   0  0  0  0  0  0  0  0  0  0  0  0
  -90.1654   29.2687   -3.3408 H   0  0  0  0  0  0  0  0  0  0  0  0
  -92.4794   29.8104   -0.5204 H   0  0  0  0  0  0  0  0  0  0  0  0
  -92.6622   28.0185   -0.4720 H   0  0  0  0  0  0  0  0  0  0  0  0
 17 18  1  0  0  0
 18 19  2  0  0  0
 18 20  1  0  0  0
 20 11  1  0  0  0
 11 12  2  0  0  0
 12 13  1  0  0  0
 13 14  2  0  0  0
 14 15  1  0  0  0
 15 10  1  0  0  0
 10  1  1  0  0  0
  1  2  2  0  0  0
  2  3  1  0  0  0
  3 22  1  0  0  0
 22 23  1  0  0  0
 23 24  2  0  0  0
 24 25  1  0  0  0
 25 26  2  0  0  0
 26 27  1  0  0  0
 27 29  1  0  0  0
 29 30  2  0  0  0
 29 31  1  0  0  0
 27 28  2  0  0  0
  3  4  2  0  0  0
  4  5  1  0  0  0
  4  6  1  0  0  0
  6  7  1  0  0  0
  6  8  2  0  0  0
  8  9  1  0  0  0
 15 16  2  0  0  0
 16 11  1  0  0  0
  8  1  1  0  0  0
 28 23  1  0  0  0
 20 21  1  0  0  0
 30 32  1  0  0  0
 31 33  1  0  0  0
 31 34  1  0  0  0
M  END
> <minimizedAffinity>
-9.31167

> <CNNscore>
0.1929974258

> <CNNaffinity>
6.2919173241

> <CNN_VS>
1.2143238783

> <CNNaffinity_variance>
0.4445227087

$$$$
[H]c1c([H])c(C(N=[N+]=[N-])(C([H])([H])[H])C([H])([H])[H])c(Cl)c([H])c1C(F)(F)F


 17 17  0  0  0  0  0  0  0  0999 V2000
  -85.4296   31.2091    0.5867 C   0  0  0  0  0  0  0  0  0  0  0  0
  -85.0380   32.4555    0.0532 C   0  0  0  0  0  0  0  0  0  0  0  0
  -85.9433   33.0187   -0.8017 C   0  0  0  0  0  0  0  0  0  0  0  0
  -87.1303   32.5183   -1.1970 C   0  0  0  0  0  0  0  0  0  0  0  0
  -87.5083   31.2632   -0.6579 C   0  0  0  0  0  0  0  0  0  0  0  0
  -86.6336   30.6326    0.2363 C   0  0  0  0  0  0  0  0  0  0  0  0
  -87.0956   29.0481    0.8887 Cl  0  0  0  0  0  0  0  0  0  0  0  0
  -88.0842   33.1956   -2.1140 C   0  0  0  0  0  0  0  0  0  0  0  0
  -89.3338   33.3928   -1.5302 F   0  0  0  0  0  0  0  0  0  0  0  0
  -88.1803   32.5572   -3.3056 F   0  0  0  0  0  0  0  0  0  0  0  0
  -87.6601   34.5045   -2.3836 F   0  0  0  0  0  0  0  0  0  0  0  0
  -83.1255   31.1061    1.4718 C   0  0  0  0  0  0  0  0  0  0  0  0
  -84.5813   30.5493    1.6165 C   0  0  0  0  0  0  0  0  0  0  0  0
  -84.9880   30.8380    3.0183 C   0  0  0  0  0  0  0  0  0  0  0  0
  -84.5011   29.1238    1.4006 N   0  0  0  0  0  0  0  0  0  0  0  0
  -84.0850   28.4037    2.2779 N   0  0  0  0  0  0  0  0  0  0  0  0
  -83.8194   27.2197    2.6654 N   0  0  0  0  0  0  0  0  0  0  0  0
 12 13  1  0  0  0
 13 14  1  0  0  0
 13 15  1  0  0  0
 15 16  2  0  0  0
 16 17  2  0  0  0
 13  1  1  0  0  0
  1  2  2  0  0  0
  2  3  1  0  0  0
  3  4  2  0  0  0
  4  8  1  0  0  0
  8  9  1  0  0  0
  8 10  1  0  0  0
  8 11  1  0  0  0
  4  5  1  0  0  0
  5  6  2  0  0  0
  6  7  1  0  0  0
  6  1  1  0  0  0
M  CHG 1  16   1
M  CHG 1  17  -1
M  END
> <minimizedAffinity>
-7.39965

> <CNNscore>
0.7830581069

> <CNNaffinity>
5.6329627037

> <CNN_VS>
4.4109373093

> <CNNaffinity_variance>
0.3893688321

$$$$
[H]c1c([H])c(C(N=[N+]=[N-])(C([H])([H])[H])C([H])([H])[H])c(Cl)c([H])c1C(F)(F)F


 17 17  0  0  0  0  0  0  0  0999 V2000
  -85.7095   29.9496    0.8383 C   0  0  0  0  0  0  0  0  0  0  0  0
  -86.2876   28.6885    0.5800 C   0  0  0  0  0  0  0  0  0  0  0  0
  -87.1104   28.6517   -0.5104 C   0  0  0  0  0  0  0  0  0  0  0  0
  -87.4381   29.6664   -1.3342 C   0  0  0  0  0  0  0  0  0  0  0  0
  -86.8549   30.9287   -1.0597 C   0  0  0  0  0  0  0  0  0  0  0  0
  -85.9899   31.0376    0.0367 C   0  0  0  0  0  0  0  0  0  0  0  0
  -85.2825   32.6252    0.3958 Cl  0  0  0  0  0  0  0  0  0  0  0  0
  -88.3232   29.5544   -2.5232 C   0  0  0  0  0  0  0  0  0  0  0  0
  -89.2367   28.5086   -2.4094 F   0  0  0  0  0  0  0  0  0  0  0  0
  -87.6147   29.4808   -3.6761 F   0  0  0  0  0  0  0  0  0  0  0  0
  -89.1538   30.6795   -2.6241 F   0  0  0  0  0  0  0  0  0  0  0  0
  -83.3014   30.2917    1.2707 C   0  0  0  0  0  0  0  0  0  0  0  0
  -84.7072   30.0912    1.9295 C   0  0  0  0  0  0  0  0  0  0  0  0
  -84.9187   31.2778    2.8020 C   0  0  0  0  0  0  0  0  0  0  0  0
  -84.6214   28.8906    2.7271 N   0  0  0  0  0  0  0  0  0  0  0  0
  -83.6708   28.1535    2.6069 N   0  0  0  0  0  0  0  0  0  0  0  0
  -83.0761   27.0914    2.9822 N   0  0  0  0  0  0  0  0  0  0  0  0
 12 13  1  0  0  0
 13 14  1  0  0  0
 13 15  1  0  0  0
 15 16  2  0  0  0
 16 17  2  0  0  0
 13  1  1  0  0  0
  1  2  2  0  0  0
  2  3  1  0  0  0
  3  4  2  0  0  0
  4  8  1  0  0  0
  8  9  1  0  0  0
  8 10  1  0  0  0
  8 11  1  0  0  0
  4  5  1  0  0  0
  5  6  2  0  0  0
  6  7  1  0  0  0
  6  1  1  0  0  0
M  CHG 1  16   1
M  CHG 1  17  -1
M  END
> <minimizedAffinity>
-7.21504

> <CNNscore>
0.7505831122

> <CNNaffinity>
5.6003532410

> <CNN_VS>
4.2035307884

> <CNNaffinity_variance>
0.7821611166

$$$$
[H]c1c([H])c(C(N=[N+]=[N-])(C([H])([H])[H])C([H])([H])[H])c(Cl)c([H])c1C(F)(F)F


 17 17  0  0  0  0  0  0  0  0999 V2000
  -85.8138   30.2364    0.9747 C   0  0  0  0  0  0  0  0  0  0  0  0
  -86.9523   29.9649    0.1865 C   0  0  0  0  0  0  0  0  0  0  0  0
  -87.2305   30.9128   -0.7577 C   0  0  0  0  0  0  0  0  0  0  0  0
  -86.5656   32.0595   -0.9999 C   0  0  0  0  0  0  0  0  0  0  0  0
  -85.4276   32.3223   -0.1969 C   0  0  0  0  0  0  0  0  0  0  0  0
  -85.0752   31.3866    0.7842 C   0  0  0  0  0  0  0  0  0  0  0  0
  -83.6665   31.7306    1.8074 Cl  0  0  0  0  0  0  0  0  0  0  0  0
  -86.9063   33.0406   -2.0633 C   0  0  0  0  0  0  0  0  0  0  0  0
  -87.2844   32.4239   -3.2542 F   0  0  0  0  0  0  0  0  0  0  0  0
  -85.9135   33.9425   -2.2565 F   0  0  0  0  0  0  0  0  0  0  0  0
  -88.0549   33.7645   -1.7132 F   0  0  0  0  0  0  0  0  0  0  0  0
  -85.4603   29.8530    3.3894 C   0  0  0  0  0  0  0  0  0  0  0  0
  -85.3418   29.2257    1.9602 C   0  0  0  0  0  0  0  0  0  0  0  0
  -86.1564   27.9810    1.9953 C   0  0  0  0  0  0  0  0  0  0  0  0
  -83.9471   28.9074    1.7637 N   0  0  0  0  0  0  0  0  0  0  0  0
  -83.4307   28.0315    2.4176 N   0  0  0  0  0  0  0  0  0  0  0  0
  -82.3849   27.3503    2.6721 N   0  0  0  0  0  0  0  0  0  0  0  0
 12 13  1  0  0  0
 13 14  1  0  0  0
 13 15  1  0  0  0
 15 16  2  0  0  0
 16 17  2  0  0  0
 13  1  1  0  0  0
  1  2  2  0  0  0
  2  3  1  0  0  0
  3  4  2  0  0  0
  4  8  1  0  0  0
  8  9  1  0  0  0
  8 10  1  0  0  0
  8 11  1  0  0  0
  4  5  1  0  0  0
  5  6  2  0  0  0
  6  7  1  0  0  0
  6  1  1  0  0  0
M  CHG 1  16   1
M  CHG 1  17  -1
M  END
> <minimizedAffinity>
-7.03807

> <CNNscore>
0.6740452051

> <CNNaffinity>
5.5579319000

> <CNN_VS>
3.7462973595

> <CNNaffinity_variance>
0.3090680242

$$$$
[H]c1c([H])c(C(N=[N+]=[N-])(C([H])([H])[H])C([H])([H])[H])c(Cl)c([H])c1C(F)(F)F


 17 17  0  0  0  0  0  0  0  0999 V2000
  -86.5064   29.1842    0.8443 C   0  0  0  0  0  0  0  0  0  0  0  0
  -87.0176   29.6033   -0.4024 C   0  0  0  0  0  0  0  0  0  0  0  0
  -86.6089   30.8462   -0.7967 C   0  0  0  0  0  0  0  0  0  0  0  0
  -85.8073   31.7027   -0.1337 C   0  0  0  0  0  0  0  0  0  0  0  0
  -85.3058   31.2712    1.1198 C   0  0  0  0  0  0  0  0  0  0  0  0
  -85.6736   30.0010    1.5819 C   0  0  0  0  0  0  0  0  0  0  0  0
  -85.0674   29.4734    3.1643 Cl  0  0  0  0  0  0  0  0  0  0  0  0
  -85.3785   33.0362   -0.6311 C   0  0  0  0  0  0  0  0  0  0  0  0
  -83.9988   33.2140   -0.5537 F   0  0  0  0  0  0  0  0  0  0  0  0
  -86.0509   34.0433   -0.0227 F   0  0  0  0  0  0  0  0  0  0  0  0
  -85.6271   33.1500   -2.0063 F   0  0  0  0  0  0  0  0  0  0  0  0
  -87.3485   26.9752    0.1274 C   0  0  0  0  0  0  0  0  0  0  0  0
  -86.7869   27.8054    1.3298 C   0  0  0  0  0  0  0  0  0  0  0  0
  -85.5841   27.0690    1.8039 C   0  0  0  0  0  0  0  0  0  0  0  0
  -87.8112   27.8019    2.3477 N   0  0  0  0  0  0  0  0  0  0  0  0
  -88.4057   26.7803    2.6010 N   0  0  0  0  0  0  0  0  0  0  0  0
  -89.2884   26.1937    3.3077 N   0  0  0  0  0  0  0  0  0  0  0  0
 12 13  1  0  0  0
 13 14  1  0  0  0
 13 15  1  0  0  0
 15 16  2  0  0  0
 16 17  2  0  0  0
 13  1  1  0  0  0
  1  2  2  0  0  0
  2  3  1  0  0  0
  3  4  2  0  0  0
  4  8  1  0  0  0
  8  9  1  0  0  0
  8 10  1  0  0  0
  8 11  1  0  0  0
  4  5  1  0  0  0
  5  6  2  0  0  0
  6  7  1  0  0  0
  6  1  1  0  0  0
M  CHG 1  16   1
M  CHG 1  17  -1
M  END
> <minimizedAffinity>
-6.66535

> <CNNscore>
0.5493532419

> <CNNaffinity>
5.4408102036

> <CNN_VS>
2.9889266491

> <CNNaffinity_variance>
0.4650503099

$$$$
[H]c1c([H])c(C(N=[N+]=[N-])(C([H])([H])[H])C([H])([H])[H])c(Cl)c([H])c1C(F)(F)F


 17 17  0  0  0  0  0  0  0  0999 V2000
  -86.5648   29.0530    0.8099 C   0  0  0  0  0  0  0  0  0  0  0  0
  -86.8184   30.2819    0.1644 C   0  0  0  0  0  0  0  0  0  0  0  0
  -85.7242   31.0886    0.0253 C   0  0  0  0  0  0  0  0  0  0  0  0
  -84.4650   30.8544    0.4439 C   0  0  0  0  0  0  0  0  0  0  0  0
  -84.2258   29.6188    1.0958 C   0  0  0  0  0  0  0  0  0  0  0  0
  -85.3001   28.7355    1.2622 C   0  0  0  0  0  0  0  0  0  0  0  0
  -85.0050   27.2009    2.1035 Cl  0  0  0  0  0  0  0  0  0  0  0  0
  -83.3091   31.7660    0.2384 C   0  0  0  0  0  0  0  0  0  0  0  0
  -83.6209   32.8412   -0.5911 F   0  0  0  0  0  0  0  0  0  0  0  0
  -82.2099   31.1003   -0.1921 F   0  0  0  0  0  0  0  0  0  0  0  0
  -82.9612   32.3960    1.4417 F   0  0  0  0  0  0  0  0  0  0  0  0
  -88.9631   28.6769    0.3520 C   0  0  0  0  0  0  0  0  0  0  0  0
  -87.6504   28.0407    0.9199 C   0  0  0  0  0  0  0  0  0  0  0  0
  -87.4186   26.8080    0.1195 C   0  0  0  0  0  0  0  0  0  0  0  0
  -87.9189   27.7015    2.2975 N   0  0  0  0  0  0  0  0  0  0  0  0
  -89.0417   27.4117    2.6392 N   0  0  0  0  0  0  0  0  0  0  0  0
  -89.8229   27.0479    3.5773 N   0  0  0  0  0  0  0  0  0  0  0  0
 12 13  1  0  0  0
 13 14  1  0  0  0
 13 15  1  0  0  0
 15 16  2  0  0  0
 16 17  2  0  0  0
 13  1  1  0  0  0
  1  2  2  0  0  0
  2  3  1  0  0  0
  3  4  2  0  0  0
  4  8  1  0  0  0
  8  9  1  0  0  0
  8 10  1  0  0  0
  8 11  1  0  0  0
  4  5  1  0  0  0
  5  6  2  0  0  0
  6  7  1  0  0  0
  6  1  1  0  0  0
M  CHG 1  16   1
M  CHG 1  17  -1
M  END
> <minimizedAffinity>
-6.80092

> <CNNscore>
0.4757016003

> <CNNaffinity>
5.4337587357

> <CNN_VS>
2.5848476887

> <CNNaffinity_variance>
0.4030080736

$$$$
[H]c1c([H])c(C(N=[N+]=[N-])(C([H])([H])[H])C([H])([H])[H])c(Cl)c([H])c1C(F)(F)F


 17 17  0  0  0  0  0  0  0  0999 V2000
  -85.3225   29.6935    1.1215 C   0  0  0  0  0  0  0  0  0  0  0  0
  -86.5236   29.8370    0.3949 C   0  0  0  0  0  0  0  0  0  0  0  0
  -87.3271   28.7316    0.3988 C   0  0  0  0  0  0  0  0  0  0  0  0
  -87.0955   27.5424    0.9886 C   0  0  0  0  0  0  0  0  0  0  0  0
  -85.8826   27.4103    1.7100 C   0  0  0  0  0  0  0  0  0  0  0  0
  -85.0149   28.5089    1.7595 C   0  0  0  0  0  0  0  0  0  0  0  0
  -83.4839   28.3327    2.6397 Cl  0  0  0  0  0  0  0  0  0  0  0  0
  -88.0256   26.3831    0.9763 C   0  0  0  0  0  0  0  0  0  0  0  0
  -88.3210   25.9248    2.2585 F   0  0  0  0  0  0  0  0  0  0  0  0
  -87.5796   25.3851    0.1752 F   0  0  0  0  0  0  0  0  0  0  0  0
  -89.2829   26.7680    0.4895 F   0  0  0  0  0  0  0  0  0  0  0  0
  -84.5996   31.4129    2.7413 C   0  0  0  0  0  0  0  0  0  0  0  0
  -84.4172   30.8633    1.2870 C   0  0  0  0  0  0  0  0  0  0  0  0
  -82.9710   30.5391    1.1548 C   0  0  0  0  0  0  0  0  0  0  0  0
  -84.7744   31.9386    0.3918 N   0  0  0  0  0  0  0  0  0  0  0  0
  -83.9126   32.6481   -0.0722 N   0  0  0  0  0  0  0  0  0  0  0  0
  -83.6147   33.6248   -0.8336 N   0  0  0  0  0  0  0  0  0  0  0  0
 12 13  1  0  0  0
 13 14  1  0  0  0
 13 15  1  0  0  0
 15 16  2  0  0  0
 16 17  2  0  0  0
 13  1  1  0  0  0
  1  2  2  0  0  0
  2  3  1  0  0  0
  3  4  2  0  0  0
  4  8  1  0  0  0
  8  9  1  0  0  0
  8 10  1  0  0  0
  8 11  1  0  0  0
  4  5  1  0  0  0
  5  6  2  0  0  0
  6  7  1  0  0  0
  6  1  1  0  0  0
M  CHG 1  16   1
M  CHG 1  17  -1
M  END
> <minimizedAffinity>
-7.27516

> <CNNscore>
0.4690141678

> <CNNaffinity>
5.4699387550

> <CNN_VS>
2.5654788017

> <CNNaffinity_variance>
0.6327193975

$$$$
[H]c1c([H])c(C(N=[N+]=[N-])(C([H])([H])[H])C([H])([H])[H])c(Cl)c([H])c1C(F)(F)F


 17 17  0  0  0  0  0  0  0  0999 V2000
  -86.8321   31.0072   -0.7357 C   0  0  0  0  0  0  0  0  0  0  0  0
  -86.9000   29.6108   -0.5437 C   0  0  0  0  0  0  0  0  0  0  0  0
  -86.0490   29.1248    0.4086 C   0  0  0  0  0  0  0  0  0  0  0  0
  -85.1600   29.8122    1.1522 C   0  0  0  0  0  0  0  0  0  0  0  0
  -85.0983   31.2129    0.9449 C   0  0  0  0  0  0  0  0  0  0  0  0
  -85.9521   31.7826   -0.0083 C   0  0  0  0  0  0  0  0  0  0  0  0
  -85.8539   33.5327   -0.2866 Cl  0  0  0  0  0  0  0  0  0  0  0  0
  -84.2771   29.2251    2.1939 C   0  0  0  0  0  0  0  0  0  0  0  0
  -84.8063   29.3580    3.4760 F   0  0  0  0  0  0  0  0  0  0  0  0
  -83.0137   29.7095    2.1181 F   0  0  0  0  0  0  0  0  0  0  0  0
  -84.1924   27.8342    2.0383 F   0  0  0  0  0  0  0  0  0  0  0  0
  -88.7832   32.5208   -0.8045 C   0  0  0  0  0  0  0  0  0  0  0  0
  -87.7883   31.6707   -1.6635 C   0  0  0  0  0  0  0  0  0  0  0  0
  -87.1545   32.6255   -2.6125 C   0  0  0  0  0  0  0  0  0  0  0  0
  -88.5851   30.7039   -2.3814 N   0  0  0  0  0  0  0  0  0  0  0  0
  -89.0936   31.0055   -3.4358 N   0  0  0  0  0  0  0  0  0  0  0  0
  -89.8020   30.6480   -4.4323 N   0  0  0  0  0  0  0  0  0  0  0  0
 12 13  1  0  0  0
 13 14  1  0  0  0
 13 15  1  0  0  0
 15 16  2  0  0  0
 16 17  2  0  0  0
 13  1  1  0  0  0
  1  2  2  0  0  0
  2  3  1  0  0  0
  3  4  2  0  0  0
  4  8  1  0  0  0
  8  9  1  0  0  0
  8 10  1  0  0  0
  8 11  1  0  0  0
  4  5  1  0  0  0
  5  6  2  0  0  0
  6  7  1  0  0  0
  6  1  1  0  0  0
M  CHG 1  16   1
M  CHG 1  17  -1
M  END
> <minimizedAffinity>
-7.29299

> <CNNscore>
0.4102147520

> <CNNaffinity>
5.2248501778

> <CNN_VS>
2.1433105469

> <CNNaffinity_variance>
0.4319565892

$$$$
[H]c1c([H])c(C(N=[N+]=[N-])(C([H])([H])[H])C([H])([H])[H])c(Cl)c([H])c1C(F)(F)F


 17 17  0  0  0  0  0  0  0  0999 V2000
  -85.2776   29.4548    1.3141 C   0  0  0  0  0  0  0  0  0  0  0  0
  -85.0613   28.2014    1.9251 C   0  0  0  0  0  0  0  0  0  0  0  0
  -86.0740   27.3005    1.7508 C   0  0  0  0  0  0  0  0  0  0  0  0
  -87.2363   27.4792    1.0930 C   0  0  0  0  0  0  0  0  0  0  0  0
  -87.4429   28.7448    0.4892 C   0  0  0  0  0  0  0  0  0  0  0  0
  -86.4399   29.7143    0.6165 C   0  0  0  0  0  0  0  0  0  0  0  0
  -86.7122   31.3077   -0.1162 Cl  0  0  0  0  0  0  0  0  0  0  0  0
  -88.2904   26.4461    0.9176 C   0  0  0  0  0  0  0  0  0  0  0  0
  -87.8981   25.4280    0.0509 F   0  0  0  0  0  0  0  0  0  0  0  0
  -89.4762   26.9902    0.5509 F   0  0  0  0  0  0  0  0  0  0  0  0
  -88.5093   25.7594    2.1203 F   0  0  0  0  0  0  0  0  0  0  0  0
  -84.5141   31.4867    2.4937 C   0  0  0  0  0  0  0  0  0  0  0  0
  -84.1998   30.4810    1.3360 C   0  0  0  0  0  0  0  0  0  0  0  0
  -82.8458   29.9375    1.6280 C   0  0  0  0  0  0  0  0  0  0  0  0
  -84.1787   31.2513    0.1148 N   0  0  0  0  0  0  0  0  0  0  0  0
  -83.6177   32.3217    0.0868 N   0  0  0  0  0  0  0  0  0  0  0  0
  -83.2738   33.3410   -0.5954 N   0  0  0  0  0  0  0  0  0  0  0  0
 12 13  1  0  0  0
 13 14  1  0  0  0
 13 15  1  0  0  0
 15 16  2  0  0  0
 16 17  2  0  0  0
 13  1  1  0  0  0
  1  2  2  0  0  0
  2  3  1  0  0  0
  3  4  2  0  0  0
  4  8  1  0  0  0
  8  9  1  0  0  0
  8 10  1  0  0  0
  8 11  1  0  0  0
  4  5  1  0  0  0
  5  6  2  0  0  0
  6  7  1  0  0  0
  6  1  1  0  0  0
M  CHG 1  16   1
M  CHG 1  17  -1
M  END
> <minimizedAffinity>
-7.07847

> <CNNscore>
0.3979669809

> <CNNaffinity>
5.1938004494

> <CNN_VS>
2.0669610500

> <CNNaffinity_variance>
0.5648964047

$$$$
[H]c1c([H])c(C(N=[N+]=[N-])(C([H])([H])[H])C([H])([H])[H])c(Cl)c([H])c1C(F)(F)F


 17 17  0  0  0  0  0  0  0  0999 V2000
  -86.8419   30.8666   -0.6581 C   0  0  0  0  0  0  0  0  0  0  0  0
  -86.9759   29.4750   -0.4660 C   0  0  0  0  0  0  0  0  0  0  0  0
  -86.1236   28.9433    0.4604 C   0  0  0  0  0  0  0  0  0  0  0  0
  -85.1790   29.5819    1.1785 C   0  0  0  0  0  0  0  0  0  0  0  0
  -85.0514   30.9783    0.9713 C   0  0  0  0  0  0  0  0  0  0  0  0
  -85.9022   31.5937    0.0442 C   0  0  0  0  0  0  0  0  0  0  0  0
  -85.7223   33.3372   -0.2346 Cl  0  0  0  0  0  0  0  0  0  0  0  0
  -84.2974   28.9473    2.1931 C   0  0  0  0  0  0  0  0  0  0  0  0
  -83.0170   29.4966    2.2029 F   0  0  0  0  0  0  0  0  0  0  0  0
  -84.2657   27.5987    2.0632 F   0  0  0  0  0  0  0  0  0  0  0  0
  -84.7610   29.2233    3.4872 F   0  0  0  0  0  0  0  0  0  0  0  0
  -88.6350   30.5066   -2.3188 C   0  0  0  0  0  0  0  0  0  0  0  0
  -87.7893   31.5810   -1.5566 C   0  0  0  0  0  0  0  0  0  0  0  0
  -88.7734   32.4413   -0.8455 C   0  0  0  0  0  0  0  0  0  0  0  0
  -87.0895   32.3448   -2.5625 N   0  0  0  0  0  0  0  0  0  0  0  0
  -87.7132   33.0007   -3.3638 N   0  0  0  0  0  0  0  0  0  0  0  0
  -87.6880   33.8002   -4.3551 N   0  0  0  0  0  0  0  0  0  0  0  0
 12 13  1  0  0  0
 13 14  1  0  0  0
 13 15  1  0  0  0
 15 16  2  0  0  0
 16 17  2  0  0  0
 13  1  1  0  0  0
  1  2  2  0  0  0
  2  3  1  0  0  0
  3  4  2  0  0  0
  4  8  1  0  0  0
  8  9  1  0  0  0
  8 10  1  0  0  0
  8 11  1  0  0  0
  4  5  1  0  0  0
  5  6  2  0  0  0
  6  7  1  0  0  0
  6  1  1  0  0  0
M  CHG 1  16   1
M  CHG 1  17  -1
M  END
> <minimizedAffinity>
-7.08003

> <CNNscore>
0.3917011321

> <CNNaffinity>
5.0773444176

> <CNN_VS>
1.9888015985

> <CNNaffinity_variance>
0.5649400353

$$$$
[H]c1c([H])c(C([H])([H])OC([H])([H])C2([H])C([H])([H])C([H])([H])N(C([H])([H])C([H])([H])C([H])([H])C([H])([H])C([H])([H])[H])C([H])([H])C2([H])[H])c([H])c([H])c1F


 21 22  0  0  0  0  0  0  0  0999 V2000
  -89.5635   27.2378    0.7424 N   0  0  0  0  0  0  0  0  0  0  0  0
  -88.8276   28.3955    0.4163 C   0  0  0  0  0  0  0  0  0  0  0  0
  -87.3544   28.2697    0.3442 C   0  0  0  0  0  0  0  0  0  0  0  0
  -86.8826   27.6536    1.6559 C   0  0  0  0  0  0  0  0  0  0  0  0
  -87.4879   26.2670    1.6713 C   0  0  0  0  0  0  0  0  0  0  0  0
  -88.9584   26.2349    1.5147 C   0  0  0  0  0  0  0  0  0  0  0  0
  -90.8714   27.6373    1.1941 C   0  0  0  0  0  0  0  0  0  0  0  0
  -90.8850   28.8351    2.0751 C   0  0  0  0  0  0  0  0  0  0  0  0
  -91.2473   28.4866    3.4964 C   0  0  0  0  0  0  0  0  0  0  0  0
  -90.1462   26.9004    5.0073 C   0  0  0  0  0  0  0  0  0  0  0  0
  -90.0267   28.2528    4.3489 C   0  0  0  0  0  0  0  0  0  0  0  0
  -85.3792   27.5114    1.6818 C   0  0  0  0  0  0  0  0  0  0  0  0
  -84.8739   28.0531    2.8651 O   0  0  0  0  0  0  0  0  0  0  0  0
  -85.3482   29.3525    3.0234 C   0  0  0  0  0  0  0  0  0  0  0  0
  -84.6109   30.2386    2.0713 C   0  0  0  0  0  0  0  0  0  0  0  0
  -85.2630   31.2412    1.3766 C   0  0  0  0  0  0  0  0  0  0  0  0
  -84.6057   32.0721    0.4925 C   0  0  0  0  0  0  0  0  0  0  0  0
  -83.2520   31.9268    0.2689 C   0  0  0  0  0  0  0  0  0  0  0  0
  -82.5781   32.7357   -0.6006 F   0  0  0  0  0  0  0  0  0  0  0  0
  -82.5960   30.9290    0.9583 C   0  0  0  0  0  0  0  0  0  0  0  0
  -83.2576   30.0901    1.8504 C   0  0  0  0  0  0  0  0  0  0  0  0
 10 11  1  0  0  0
 11  9  1  0  0  0
  9  8  1  0  0  0
  8  7  1  0  0  0
  7  1  1  0  0  0
  1  2  1  0  0  0
  2  3  1  0  0  0
  3  4  1  0  0  0
  4 12  1  0  0  0
 12 13  1  0  0  0
 13 14  1  0  0  0
 14 15  1  0  0  0
 15 16  2  0  0  0
 16 17  1  0  0  0
 17 18  2  0  0  0
 18 19  1  0  0  0
 18 20  1  0  0  0
 20 21  2  0  0  0
  4  5  1  0  0  0
  5  6  1  0  0  0
  6  1  1  0  0  0
 21 15  1  0  0  0
M  END
> <minimizedAffinity>
-7.12835

> <CNNscore>
0.8110573888

> <CNNaffinity>
6.1641621590

> <CNN_VS>
4.9994893074

> <CNNaffinity_variance>
0.3309085965

$$$$
[H]c1c([H])c(C([H])([H])OC([H])([H])C2([H])C([H])([H])C([H])([H])N(C([H])([H])C([H])([H])C([H])([H])C([H])([H])C([H])([H])[H])C([H])([H])C2([H])[H])c([H])c([H])c1F


 21 22  0  0  0  0  0  0  0  0999 V2000
  -90.0474   27.5997   -1.2684 N   0  0  0  0  0  0  0  0  0  0  0  0
  -90.7036   28.7918   -1.6383 C   0  0  0  0  0  0  0  0  0  0  0  0
  -89.9659   29.7345   -2.5090 C   0  0  0  0  0  0  0  0  0  0  0  0
  -88.6221   30.0140   -1.8466 C   0  0  0  0  0  0  0  0  0  0  0  0
  -87.9032   28.6826   -1.8542 C   0  0  0  0  0  0  0  0  0  0  0  0
  -88.6458   27.5778   -1.2094 C   0  0  0  0  0  0  0  0  0  0  0  0
  -90.7063   27.0536   -0.1100 C   0  0  0  0  0  0  0  0  0  0  0  0
  -90.8978   28.0162    1.0070 C   0  0  0  0  0  0  0  0  0  0  0  0
  -90.4570   27.4419    2.3293 C   0  0  0  0  0  0  0  0  0  0  0  0
  -90.0620   27.9811    4.6882 C   0  0  0  0  0  0  0  0  0  0  0  0
  -90.9357   28.2715    3.4928 C   0  0  0  0  0  0  0  0  0  0  0  0
  -87.8076   30.9935   -2.6579 C   0  0  0  0  0  0  0  0  0  0  0  0
  -87.7789   32.2317   -2.0133 O   0  0  0  0  0  0  0  0  0  0  0  0
  -87.5578   32.0439   -0.6516 C   0  0  0  0  0  0  0  0  0  0  0  0
  -86.0815   32.0190   -0.4167 C   0  0  0  0  0  0  0  0  0  0  0  0
  -85.2716   33.0549   -0.8459 C   0  0  0  0  0  0  0  0  0  0  0  0
  -83.9069   33.0559   -0.6416 C   0  0  0  0  0  0  0  0  0  0  0  0
  -83.2951   32.0044    0.0093 C   0  0  0  0  0  0  0  0  0  0  0  0
  -81.9469   31.9811    0.2241 F   0  0  0  0  0  0  0  0  0  0  0  0
  -84.0969   30.9685    0.4396 C   0  0  0  0  0  0  0  0  0  0  0  0
  -85.4736   30.9659    0.2343 C   0  0  0  0  0  0  0  0  0  0  0  0
 10 11  1  0  0  0
 11  9  1  0  0  0
  9  8  1  0  0  0
  8  7  1  0  0  0
  7  1  1  0  0  0
  1  2  1  0  0  0
  2  3  1  0  0  0
  3  4  1  0  0  0
  4 12  1  0  0  0
 12 13  1  0  0  0
 13 14  1  0  0  0
 14 15  1  0  0  0
 15 16  2  0  0  0
 16 17  1  0  0  0
 17 18  2  0  0  0
 18 19  1  0  0  0
 18 20  1  0  0  0
 20 21  2  0  0  0
  4  5  1  0  0  0
  5  6  1  0  0  0
  6  1  1  0  0  0
 21 15  1  0  0  0
M  END
> <minimizedAffinity>
-6.19011

> <CNNscore>
0.5232340097

> <CNNaffinity>
5.6317887306

> <CNN_VS>
2.9467434883

> <CNNaffinity_variance>
0.2233718634

$$$$
[H]c1c([H])c(C([H])([H])OC([H])([H])C2([H])C([H])([H])C([H])([H])N(C([H])([H])C([H])([H])C([H])([H])C([H])([H])C([H])([H])[H])C([H])([H])C2([H])[H])c([H])c([H])c1F


 21 22  0  0  0  0  0  0  0  0999 V2000
  -85.0390   28.6730    1.2075 N   0  0  0  0  0  0  0  0  0  0  0  0
  -85.8652   27.8428    1.9926 C   0  0  0  0  0  0  0  0  0  0  0  0
  -87.0134   27.1925    1.3218 C   0  0  0  0  0  0  0  0  0  0  0  0
  -87.8142   28.2847    0.6230 C   0  0  0  0  0  0  0  0  0  0  0  0
  -86.8807   28.8319   -0.4345 C   0  0  0  0  0  0  0  0  0  0  0  0
  -85.5792   29.3104    0.0804 C   0  0  0  0  0  0  0  0  0  0  0  0
  -84.2894   29.5355    2.0841 C   0  0  0  0  0  0  0  0  0  0  0  0
  -82.9360   29.9004    1.5880 C   0  0  0  0  0  0  0  0  0  0  0  0
  -82.8218   31.3739    1.2904 C   0  0  0  0  0  0  0  0  0  0  0  0
  -83.6346   32.8377   -0.5007 C   0  0  0  0  0  0  0  0  0  0  0  0
  -82.7604   31.6477   -0.1903 C   0  0  0  0  0  0  0  0  0  0  0  0
  -89.0275   27.7121   -0.0706 C   0  0  0  0  0  0  0  0  0  0  0  0
  -90.1882   28.1496    0.5702 O   0  0  0  0  0  0  0  0  0  0  0  0
  -90.8777   27.0552    1.0853 C   0  0  0  0  0  0  0  0  0  0  0  0
  -90.5595   26.9456    2.5420 C   0  0  0  0  0  0  0  0  0  0  0  0
  -90.3091   25.7184    3.1290 C   0  0  0  0  0  0  0  0  0  0  0  0
  -90.0133   25.5904    4.4707 C   0  0  0  0  0  0  0  0  0  0  0  0
  -89.9567   26.7029    5.2849 C   0  0  0  0  0  0  0  0  0  0  0  0
  -89.6663   26.6035    6.6154 F   0  0  0  0  0  0  0  0  0  0  0  0
  -90.2055   27.9293    4.7059 C   0  0  0  0  0  0  0  0  0  0  0  0
  -90.5040   28.0601    3.3527 C   0  0  0  0  0  0  0  0  0  0  0  0
 10 11  1  0  0  0
 11  9  1  0  0  0
  9  8  1  0  0  0
  8  7  1  0  0  0
  7  1  1  0  0  0
  1  2  1  0  0  0
  2  3  1  0  0  0
  3  4  1  0  0  0
  4 12  1  0  0  0
 12 13  1  0  0  0
 13 14  1  0  0  0
 14 15  1  0  0  0
 15 16  2  0  0  0
 16 17  1  0  0  0
 17 18  2  0  0  0
 18 19  1  0  0  0
 18 20  1  0  0  0
 20 21  2  0  0  0
  4  5  1  0  0  0
  5  6  1  0  0  0
  6  1  1  0  0  0
 21 15  1  0  0  0
M  END
> <minimizedAffinity>
-7.11681

> <CNNscore>
0.4697391391

> <CNNaffinity>
5.5813412666

> <CNN_VS>
2.6217744350

> <CNNaffinity_variance>
0.3932312131

$$$$
[H]c1c([H])c(C([H])([H])OC([H])([H])C2([H])C([H])([H])C([H])([H])N(C([H])([H])C([H])([H])C([H])([H])C([H])([H])C([H])([H])[H])C([H])([H])C2([H])[H])c([H])c([H])c1F


 21 22  0  0  0  0  0  0  0  0999 V2000
  -85.6323   28.8163    1.7304 N   0  0  0  0  0  0  0  0  0  0  0  0
  -86.5045   29.4971    0.8563 C   0  0  0  0  0  0  0  0  0  0  0  0
  -87.8000   28.8518    0.5459 C   0  0  0  0  0  0  0  0  0  0  0  0
  -87.5025   27.4393    0.0570 C   0  0  0  0  0  0  0  0  0  0  0  0
  -86.8852   26.7400    1.2483 C   0  0  0  0  0  0  0  0  0  0  0  0
  -85.6976   27.4173    1.8130 C   0  0  0  0  0  0  0  0  0  0  0  0
  -84.3044   29.3469    1.5591 C   0  0  0  0  0  0  0  0  0  0  0  0
  -84.1494   30.2721    0.4055 C   0  0  0  0  0  0  0  0  0  0  0  0
  -83.1895   31.3948    0.7069 C   0  0  0  0  0  0  0  0  0  0  0  0
  -84.6176   32.8822   -0.6195 C   0  0  0  0  0  0  0  0  0  0  0  0
  -83.1942   32.4466   -0.3724 C   0  0  0  0  0  0  0  0  0  0  0  0
  -88.7734   26.7106   -0.3103 C   0  0  0  0  0  0  0  0  0  0  0  0
  -89.8750   27.5371   -0.0807 O   0  0  0  0  0  0  0  0  0  0  0  0
  -90.8741   26.8143    0.5656 C   0  0  0  0  0  0  0  0  0  0  0  0
  -90.6094   26.8628    2.0362 C   0  0  0  0  0  0  0  0  0  0  0  0
  -90.7056   28.0488    2.7414 C   0  0  0  0  0  0  0  0  0  0  0  0
  -90.4665   28.1202    4.0985 C   0  0  0  0  0  0  0  0  0  0  0  0
  -90.1172   26.9901    4.8088 C   0  0  0  0  0  0  0  0  0  0  0  0
  -89.8753   27.0337    6.1519 F   0  0  0  0  0  0  0  0  0  0  0  0
  -90.0195   25.8044    4.1116 C   0  0  0  0  0  0  0  0  0  0  0  0
  -90.2605   25.7307    2.7427 C   0  0  0  0  0  0  0  0  0  0  0  0
 10 11  1  0  0  0
 11  9  1  0  0  0
  9  8  1  0  0  0
  8  7  1  0  0  0
  7  1  1  0  0  0
  1  2  1  0  0  0
  2  3  1  0  0  0
  3  4  1  0  0  0
  4 12  1  0  0  0
 12 13  1  0  0  0
 13 14  1  0  0  0
 14 15  1  0  0  0
 15 16  2  0  0  0
 16 17  1  0  0  0
 17 18  2  0  0  0
 18 19  1  0  0  0
 18 20  1  0  0  0
 20 21  2  0  0  0
  4  5  1  0  0  0
  5  6  1  0  0  0
  6  1  1  0  0  0
 21 15  1  0  0  0
M  END
> <minimizedAffinity>
-6.37123

> <CNNscore>
0.4474225938

> <CNNaffinity>
5.5781965256

> <CNN_VS>
2.4958112240

> <CNNaffinity_variance>
0.3845216632

$$$$
[H]c1c([H])c(C([H])([H])OC([H])([H])C2([H])C([H])([H])C([H])([H])N(C([H])([H])C([H])([H])C([H])([H])C([H])([H])C([H])([H])[H])C([H])([H])C2([H])[H])c([H])c([H])c1F


 21 22  0  0  0  0  0  0  0  0999 V2000
  -85.8226   31.9106   -0.6556 N   0  0  0  0  0  0  0  0  0  0  0  0
  -86.2329   30.6480   -0.1805 C   0  0  0  0  0  0  0  0  0  0  0  0
  -87.5311   30.1262   -0.6637 C   0  0  0  0  0  0  0  0  0  0  0  0
  -88.5827   31.1967   -0.3976 C   0  0  0  0  0  0  0  0  0  0  0  0
  -88.1744   32.3645   -1.2688 C   0  0  0  0  0  0  0  0  0  0  0  0
  -86.7930   32.8449   -1.0476 C   0  0  0  0  0  0  0  0  0  0  0  0
  -84.8131   32.4288    0.2313 C   0  0  0  0  0  0  0  0  0  0  0  0
  -83.5603   31.6294    0.2808 C   0  0  0  0  0  0  0  0  0  0  0  0
  -83.2761   31.1101    1.6673 C   0  0  0  0  0  0  0  0  0  0  0  0
  -83.8281   28.8167    2.3354 C   0  0  0  0  0  0  0  0  0  0  0  0
  -82.7996   29.6805    1.6479 C   0  0  0  0  0  0  0  0  0  0  0  0
  -89.9523   30.7370   -0.8379 C   0  0  0  0  0  0  0  0  0  0  0  0
  -90.0851   29.3655   -0.6128 O   0  0  0  0  0  0  0  0  0  0  0  0
  -91.1820   29.1320    0.2123 C   0  0  0  0  0  0  0  0  0  0  0  0
  -90.6899   28.5081    1.4787 C   0  0  0  0  0  0  0  0  0  0  0  0
  -89.6187   27.6331    1.4756 C   0  0  0  0  0  0  0  0  0  0  0  0
  -89.1455   27.0441    2.6303 C   0  0  0  0  0  0  0  0  0  0  0  0
  -89.7366   27.3140    3.8475 C   0  0  0  0  0  0  0  0  0  0  0  0
  -89.2878   26.7444    5.0044 F   0  0  0  0  0  0  0  0  0  0  0  0
  -90.8051   28.1854    3.8574 C   0  0  0  0  0  0  0  0  0  0  0  0
  -91.2836   28.7804    2.6936 C   0  0  0  0  0  0  0  0  0  0  0  0
 10 11  1  0  0  0
 11  9  1  0  0  0
  9  8  1  0  0  0
  8  7  1  0  0  0
  7  1  1  0  0  0
  1  2  1  0  0  0
  2  3  1  0  0  0
  3  4  1  0  0  0
  4 12  1  0  0  0
 12 13  1  0  0  0
 13 14  1  0  0  0
 14 15  1  0  0  0
 15 16  2  0  0  0
 16 17  1  0  0  0
 17 18  2  0  0  0
 18 19  1  0  0  0
 18 20  1  0  0  0
 20 21  2  0  0  0
  4  5  1  0  0  0
  5  6  1  0  0  0
  6  1  1  0  0  0
 21 15  1  0  0  0
M  END
> <minimizedAffinity>
-6.70201

> <CNNscore>
0.4165339172

> <CNNaffinity>
5.5669074059

> <CNN_VS>
2.3188056946

> <CNNaffinity_variance>
0.4723334312

$$$$
[H]c1c([H])c(C([H])([H])OC([H])([H])C2([H])C([H])([H])C([H])([H])N(C([H])([H])C([H])([H])C([H])([H])C([H])([H])C([H])([H])[H])C([H])([H])C2([H])[H])c([H])c([H])c1F


 21 22  0  0  0  0  0  0  0  0999 V2000
  -88.9964   27.6841   -0.9761 N   0  0  0  0  0  0  0  0  0  0  0  0
  -88.0394   26.6602   -1.1316 C   0  0  0  0  0  0  0  0  0  0  0  0
  -87.3405   26.1892    0.0853 C   0  0  0  0  0  0  0  0  0  0  0  0
  -86.7492   27.4122    0.7762 C   0  0  0  0  0  0  0  0  0  0  0  0
  -87.9470   28.2372    1.1932 C   0  0  0  0  0  0  0  0  0  0  0  0
  -88.8685   28.5868    0.0903 C   0  0  0  0  0  0  0  0  0  0  0  0
  -89.2245   28.2977   -2.2589 C   0  0  0  0  0  0  0  0  0  0  0  0
  -88.0122   28.8799   -2.8932 C   0  0  0  0  0  0  0  0  0  0  0  0
  -88.1051   30.3794   -3.0183 C   0  0  0  0  0  0  0  0  0  0  0  0
  -88.0836   32.3223   -4.5136 C   0  0  0  0  0  0  0  0  0  0  0  0
  -87.7595   30.8525   -4.4068 C   0  0  0  0  0  0  0  0  0  0  0  0
  -85.9902   27.0209    2.0220 C   0  0  0  0  0  0  0  0  0  0  0  0
  -84.7029   27.5595    1.9795 O   0  0  0  0  0  0  0  0  0  0  0  0
  -84.6501   28.7053    2.7686 C   0  0  0  0  0  0  0  0  0  0  0  0
  -84.2468   29.8532    1.8997 C   0  0  0  0  0  0  0  0  0  0  0  0
  -82.9234   30.0568    1.5526 C   0  0  0  0  0  0  0  0  0  0  0  0
  -82.5253   31.1082    0.7525 C   0  0  0  0  0  0  0  0  0  0  0  0
  -83.4514   32.0066    0.2639 C   0  0  0  0  0  0  0  0  0  0  0  0
  -83.0837   33.0552   -0.5296 F   0  0  0  0  0  0  0  0  0  0  0  0
  -84.7725   31.8093    0.6063 C   0  0  0  0  0  0  0  0  0  0  0  0
  -85.1757   30.7493    1.4133 C   0  0  0  0  0  0  0  0  0  0  0  0
 10 11  1  0  0  0
 11  9  1  0  0  0
  9  8  1  0  0  0
  8  7  1  0  0  0
  7  1  1  0  0  0
  1  2  1  0  0  0
  2  3  1  0  0  0
  3  4  1  0  0  0
  4 12  1  0  0  0
 12 13  1  0  0  0
 13 14  1  0  0  0
 14 15  1  0  0  0
 15 16  2  0  0  0
 16 17  1  0  0  0
 17 18  2  0  0  0
 18 19  1  0  0  0
 18 20  1  0  0  0
 20 21  2  0  0  0
  4  5  1  0  0  0
  5  6  1  0  0  0
  6  1  1  0  0  0
 21 15  1  0  0  0
M  END
> <minimizedAffinity>
-7.13567

> <CNNscore>
0.3606878519

> <CNNaffinity>
5.3663592339

> <CNN_VS>
1.9355806112

> <CNNaffinity_variance>
1.0906808376

$$$$
[H]c1c([H])c(C([H])([H])OC([H])([H])C2([H])C([H])([H])C([H])([H])N(C([H])([H])C([H])([H])C([H])([H])C([H])([H])C([H])([H])[H])C([H])([H])C2([H])[H])c([H])c([H])c1F


 21 22  0  0  0  0  0  0  0  0999 V2000
  -85.9913   28.7945   -0.2159 N   0  0  0  0  0  0  0  0  0  0  0  0
  -86.7761   28.8410    0.9547 C   0  0  0  0  0  0  0  0  0  0  0  0
  -88.0710   28.1241    0.9367 C   0  0  0  0  0  0  0  0  0  0  0  0
  -88.8472   28.6109   -0.2811 C   0  0  0  0  0  0  0  0  0  0  0  0
  -88.0258   28.1591   -1.4688 C   0  0  0  0  0  0  0  0  0  0  0  0
  -86.6207   28.6209   -1.4576 C   0  0  0  0  0  0  0  0  0  0  0  0
  -85.0365   29.8718   -0.1714 C   0  0  0  0  0  0  0  0  0  0  0  0
  -85.6128   31.1985    0.1736 C   0  0  0  0  0  0  0  0  0  0  0  0
  -84.6840   32.0094    1.0411 C   0  0  0  0  0  0  0  0  0  0  0  0
  -84.9961   31.1339    3.3099 C   0  0  0  0  0  0  0  0  0  0  0  0
  -84.0572   31.1764    2.1295 C   0  0  0  0  0  0  0  0  0  0  0  0
  -90.2014   27.9476   -0.3654 C   0  0  0  0  0  0  0  0  0  0  0  0
  -90.8859   28.1163    0.8397 O   0  0  0  0  0  0  0  0  0  0  0  0
  -91.2564   26.8726    1.3441 C   0  0  0  0  0  0  0  0  0  0  0  0
  -90.7906   26.7855    2.7621 C   0  0  0  0  0  0  0  0  0  0  0  0
  -90.6356   27.9221    3.5349 C   0  0  0  0  0  0  0  0  0  0  0  0
  -90.2073   27.8687    4.8456 C   0  0  0  0  0  0  0  0  0  0  0  0
  -89.9146   26.6576    5.4382 C   0  0  0  0  0  0  0  0  0  0  0  0
  -89.4891   26.5774    6.7332 F   0  0  0  0  0  0  0  0  0  0  0  0
  -90.0670   25.5207    4.6731 C   0  0  0  0  0  0  0  0  0  0  0  0
  -90.4989   25.5728    3.3509 C   0  0  0  0  0  0  0  0  0  0  0  0
 10 11  1  0  0  0
 11  9  1  0  0  0
  9  8  1  0  0  0
  8  7  1  0  0  0
  7  1  1  0  0  0
  1  2  1  0  0  0
  2  3  1  0  0  0
  3  4  1  0  0  0
  4 12  1  0  0  0
 12 13  1  0  0  0
 13 14  1  0  0  0
 14 15  1  0  0  0
 15 16  2  0  0  0
 16 17  1  0  0  0
 17 18  2  0  0  0
 18 19  1  0  0  0
 18 20  1  0  0  0
 20 21  2  0  0  0
  4  5  1  0  0  0
  5  6  1  0  0  0
  6  1  1  0  0  0
 21 15  1  0  0  0
M  END
> <minimizedAffinity>
-5.98175

> <CNNscore>
0.3574596047

> <CNNaffinity>
5.5265884399

> <CNN_VS>
1.9755321741

> <CNNaffinity_variance>
0.2061112672

$$$$
[H]c1c([H])c(C([H])([H])OC([H])([H])C2([H])C([H])([H])C([H])([H])N(C([H])([H])C([H])([H])C([H])([H])C([H])([H])C([H])([H])[H])C([H])([H])C2([H])[H])c([H])c([H])c1F


 21 22  0  0  0  0  0  0  0  0999 V2000
  -86.0516   29.0587    1.5038 N   0  0  0  0  0  0  0  0  0  0  0  0
  -86.9915   29.1980    0.4620 C   0  0  0  0  0  0  0  0  0  0  0  0
  -88.0550   28.1734    0.3612 C   0  0  0  0  0  0  0  0  0  0  0  0
  -87.3754   26.8097    0.3276 C   0  0  0  0  0  0  0  0  0  0  0  0
  -86.7027   26.6798    1.6767 C   0  0  0  0  0  0  0  0  0  0  0  0
  -85.7721   27.7803    2.0096 C   0  0  0  0  0  0  0  0  0  0  0  0
  -84.8887   29.8448    1.1810 C   0  0  0  0  0  0  0  0  0  0  0  0
  -85.0753   30.7950    0.0526 C   0  0  0  0  0  0  0  0  0  0  0  0
  -84.7958   32.2190    0.4613 C   0  0  0  0  0  0  0  0  0  0  0  0
  -86.8953   32.6929   -0.7128 C   0  0  0  0  0  0  0  0  0  0  0  0
  -85.5078   33.2101   -0.4229 C   0  0  0  0  0  0  0  0  0  0  0  0
  -88.3897   25.6981    0.1982 C   0  0  0  0  0  0  0  0  0  0  0  0
  -89.6681   26.1918    0.4649 O   0  0  0  0  0  0  0  0  0  0  0  0
  -90.3289   25.3299    1.3359 C   0  0  0  0  0  0  0  0  0  0  0  0
  -90.2109   25.8828    2.7200 C   0  0  0  0  0  0  0  0  0  0  0  0
  -90.4924   27.2106    2.9860 C   0  0  0  0  0  0  0  0  0  0  0  0
  -90.3912   27.7452    4.2541 C   0  0  0  0  0  0  0  0  0  0  0  0
  -89.9987   26.9580    5.3170 C   0  0  0  0  0  0  0  0  0  0  0  0
  -89.8905   27.4624    6.5813 F   0  0  0  0  0  0  0  0  0  0  0  0
  -89.7164   25.6333    5.0585 C   0  0  0  0  0  0  0  0  0  0  0  0
  -89.8180   25.0925    3.7800 C   0  0  0  0  0  0  0  0  0  0  0  0
 10 11  1  0  0  0
 11  9  1  0  0  0
  9  8  1  0  0  0
  8  7  1  0  0  0
  7  1  1  0  0  0
  1  2  1  0  0  0
  2  3  1  0  0  0
  3  4  1  0  0  0
  4 12  1  0  0  0
 12 13  1  0  0  0
 13 14  1  0  0  0
 14 15  1  0  0  0
 15 16  2  0  0  0
 16 17  1  0  0  0
 17 18  2  0  0  0
 18 19  1  0  0  0
 18 20  1  0  0  0
 20 21  2  0  0  0
  4  5  1  0  0  0
  5  6  1  0  0  0
  6  1  1  0  0  0
 21 15  1  0  0  0
M  END
> <minimizedAffinity>
-6.16075

> <CNNscore>
0.3569951653

> <CNNaffinity>
5.4561448097

> <CNN_VS>
1.9478173256

> <CNNaffinity_variance>
0.2735334933

$$$$
[H]c1c([H])c(C([H])([H])OC([H])([H])C2([H])C([H])([H])C([H])([H])N(C([H])([H])C([H])([H])C([H])([H])C([H])([H])C([H])([H])[H])C([H])([H])C2([H])[H])c([H])c([H])c1F


 21 22  0  0  0  0  0  0  0  0999 V2000
  -89.7490   26.3561    0.5498 N   0  0  0  0  0  0  0  0  0  0  0  0
  -88.6548   26.0974   -0.3012 C   0  0  0  0  0  0  0  0  0  0  0  0
  -87.3162   25.9916    0.3218 C   0  0  0  0  0  0  0  0  0  0  0  0
  -87.0973   27.2497    1.1535 C   0  0  0  0  0  0  0  0  0  0  0  0
  -88.1460   27.1806    2.2420 C   0  0  0  0  0  0  0  0  0  0  0  0
  -89.5351   27.0475    1.7517 C   0  0  0  0  0  0  0  0  0  0  0  0
  -90.8406   26.8565   -0.2454 C   0  0  0  0  0  0  0  0  0  0  0  0
  -90.4299   27.6156   -1.4562 C   0  0  0  0  0  0  0  0  0  0  0  0
  -91.2800   28.8423   -1.6690 C   0  0  0  0  0  0  0  0  0  0  0  0
  -89.0255   29.7579   -1.3693 C   0  0  0  0  0  0  0  0  0  0  0  0
  -90.4840   30.1134   -1.5209 C   0  0  0  0  0  0  0  0  0  0  0  0
  -85.7368   27.2400    1.8092 C   0  0  0  0  0  0  0  0  0  0  0  0
  -85.5467   28.4263    2.5204 O   0  0  0  0  0  0  0  0  0  0  0  0
  -84.1951   28.7601    2.5186 C   0  0  0  0  0  0  0  0  0  0  0  0
  -84.0227   30.0075    1.7127 C   0  0  0  0  0  0  0  0  0  0  0  0
  -85.1048   30.8077    1.3933 C   0  0  0  0  0  0  0  0  0  0  0  0
  -84.9724   31.9635    0.6511 C   0  0  0  0  0  0  0  0  0  0  0  0
  -83.7337   32.3655    0.1954 C   0  0  0  0  0  0  0  0  0  0  0  0
  -83.5756   33.5046   -0.5407 F   0  0  0  0  0  0  0  0  0  0  0  0
  -82.6508   31.5721    0.5104 C   0  0  0  0  0  0  0  0  0  0  0  0
  -82.7827   30.4060    1.2589 C   0  0  0  0  0  0  0  0  0  0  0  0
 10 11  1  0  0  0
 11  9  1  0  0  0
  9  8  1  0  0  0
  8  7  1  0  0  0
  7  1  1  0  0  0
  1  2  1  0  0  0
  2  3  1  0  0  0
  3  4  1  0  0  0
  4 12  1  0  0  0
 12 13  1  0  0  0
 13 14  1  0  0  0
 14 15  1  0  0  0
 15 16  2  0  0  0
 16 17  1  0  0  0
 17 18  2  0  0  0
 18 19  1  0  0  0
 18 20  1  0  0  0
 20 21  2  0  0  0
  4  5  1  0  0  0
  5  6  1  0  0  0
  6  1  1  0  0  0
 21 15  1  0  0  0
M  END
> <minimizedAffinity>
-6.28515

> <CNNscore>
0.3192435205

> <CNNaffinity>
5.4761352539

> <CNN_VS>
1.7482206821

> <CNNaffinity_variance>
0.6833157539

$$$$
[H]c1c([H])c([H])c([C@@]2([H])C([H])([H])[C@]2([H])N([H])C([H])([H])C2([H])C([H])([H])C([H])([H])N([H])C([H])([H])C2([H])[H])c([H])c1[H]


 19 21  0  0  0  0  0  0  0  0999 V2000
  -85.1210   27.3033    2.2893 N   0  0  0  0  0  0  0  0  0  0  0  0
  -85.0748   27.1145    3.3034 H   0  0  0  0  0  0  0  0  0  0  0  0
  -84.0575   29.6147    2.0886 C   0  0  0  0  0  0  0  0  0  0  0  0
  -85.1090   29.5979    3.2024 C   0  0  0  0  0  0  0  0  0  0  0  0
  -85.2254   28.7110    1.9582 C   0  0  0  0  0  0  0  0  0  0  0  0
  -83.9150   32.9824   -0.5905 C   0  0  0  0  0  0  0  0  0  0  0  0
  -82.7673   32.3490   -0.1631 C   0  0  0  0  0  0  0  0  0  0  0  0
  -82.8382   31.2587    0.7058 C   0  0  0  0  0  0  0  0  0  0  0  0
  -84.0378   30.7757    1.1667 C   0  0  0  0  0  0  0  0  0  0  0  0
  -85.1817   31.4141    0.7350 C   0  0  0  0  0  0  0  0  0  0  0  0
  -85.1183   32.5016   -0.1311 C   0  0  0  0  0  0  0  0  0  0  0  0
  -86.2282   26.6386    1.6337 C   0  0  0  0  0  0  0  0  0  0  0  0
  -87.4136   27.5301    1.4082 C   0  0  0  0  0  0  0  0  0  0  0  0
  -88.4261   27.2820    2.4897 C   0  0  0  0  0  0  0  0  0  0  0  0
  -89.0578   25.9287    2.4504 C   0  0  0  0  0  0  0  0  0  0  0  0
  -88.9909   25.3109    1.1375 N   0  0  0  0  0  0  0  0  0  0  0  0
  -89.2742   26.3909    0.1798 C   0  0  0  0  0  0  0  0  0  0  0  0
  -87.9776   27.1751    0.0367 C   0  0  0  0  0  0  0  0  0  0  0  0
  -89.6835   24.5578    1.0765 H   0  0  0  0  0  0  0  0  0  0  0  0
  6  7  2  0  0  0
  7  8  1  0  0  0
  8  9  2  0  0  0
  9  3  1  0  0  0
  3  4  1  0  0  0
  4  5  1  0  0  0
  5  1  1  0  0  0
  1 12  1  0  0  0
 12 13  1  0  0  0
 13 14  1  0  0  0
 14 15  1  0  0  0
 15 16  1  0  0  0
 16 17  1  0  0  0
 17 18  1  0  0  0
  9 10  1  0  0  0
 10 11  2  0  0  0
 11  6  1  0  0  0
  5  3  1  0  0  0
 18 13  1  0  0  0
  1  2  1  0  0  0
 16 19  1  0  0  0
M  END
> <minimizedAffinity>
-7.53087

> <CNNscore>
0.4620845616

> <CNNaffinity>
5.3018579483

> <CNN_VS>
2.4499065876

> <CNNaffinity_variance>
0.1644132435

$$$$
[H]c1c([H])c([H])c([C@@]2([H])C([H])([H])[C@]2([H])N([H])C([H])([H])C2([H])C([H])([H])C([H])([H])N([H])C([H])([H])C2([H])[H])c([H])c1[H]


 19 21  0  0  0  0  0  0  0  0999 V2000
  -86.4569   27.5402    1.8842 N   0  0  0  0  0  0  0  0  0  0  0  0
  -87.0134   27.3309    2.7283 H   0  0  0  0  0  0  0  0  0  0  0  0
  -84.5020   29.1693    1.6887 C   0  0  0  0  0  0  0  0  0  0  0  0
  -85.1324   29.2455    3.0827 C   0  0  0  0  0  0  0  0  0  0  0  0
  -85.9521   28.8984    1.8353 C   0  0  0  0  0  0  0  0  0  0  0  0
  -83.4014   32.8455   -0.2641 C   0  0  0  0  0  0  0  0  0  0  0  0
  -82.4518   31.9755    0.2283 C   0  0  0  0  0  0  0  0  0  0  0  0
  -82.8325   30.7891    0.8577 C   0  0  0  0  0  0  0  0  0  0  0  0
  -84.1515   30.4412    1.0121 C   0  0  0  0  0  0  0  0  0  0  0  0
  -85.0959   31.3161    0.5173 C   0  0  0  0  0  0  0  0  0  0  0  0
  -84.7235   32.5006   -0.1112 C   0  0  0  0  0  0  0  0  0  0  0  0
  -87.1844   27.3222    0.6510 C   0  0  0  0  0  0  0  0  0  0  0  0
  -87.6315   28.5910   -0.0131 C   0  0  0  0  0  0  0  0  0  0  0  0
  -89.1271   28.5709   -0.1515 C   0  0  0  0  0  0  0  0  0  0  0  0
  -89.6495   27.5383   -1.0966 C   0  0  0  0  0  0  0  0  0  0  0  0
  -88.6612   27.1127   -2.0723 N   0  0  0  0  0  0  0  0  0  0  0  0
  -87.9599   28.3390   -2.4824 C   0  0  0  0  0  0  0  0  0  0  0  0
  -86.9547   28.6360   -1.3787 C   0  0  0  0  0  0  0  0  0  0  0  0
  -89.1316   26.6617   -2.8635 H   0  0  0  0  0  0  0  0  0  0  0  0
  6  7  2  0  0  0
  7  8  1  0  0  0
  8  9  2  0  0  0
  9  3  1  0  0  0
  3  4  1  0  0  0
  4  5  1  0  0  0
  5  1  1  0  0  0
  1 12  1  0  0  0
 12 13  1  0  0  0
 13 14  1  0  0  0
 14 15  1  0  0  0
 15 16  1  0  0  0
 16 17  1  0  0  0
 17 18  1  0  0  0
  9 10  1  0  0  0
 10 11  2  0  0  0
 11  6  1  0  0  0
  5  3  1  0  0  0
 18 13  1  0  0  0
  1  2  1  0  0  0
 16 19  1  0  0  0
M  END
> <minimizedAffinity>
-7.10328

> <CNNscore>
0.3961363435

> <CNNaffinity>
5.1101064682

> <CNN_VS>
2.0242989063

> <CNNaffinity_variance>
0.4680324495

$$$$
[H]c1c([H])c([H])c([C@@]2([H])C([H])([H])[C@]2([H])N([H])C([H])([H])C2([H])C([H])([H])C([H])([H])N([H])C([H])([H])C2([H])[H])c([H])c1[H]


 19 21  0  0  0  0  0  0  0  0999 V2000
  -86.0405   33.7108   -1.0508 N   0  0  0  0  0  0  0  0  0  0  0  0
  -85.4065   34.2382   -1.6720 H   0  0  0  0  0  0  0  0  0  0  0  0
  -85.0313   32.2544    0.7861 C   0  0  0  0  0  0  0  0  0  0  0  0
  -84.0021   32.5263   -0.3154 C   0  0  0  0  0  0  0  0  0  0  0  0
  -85.5040   32.4391   -0.6067 C   0  0  0  0  0  0  0  0  0  0  0  0
  -85.3415   28.2208    2.2603 C   0  0  0  0  0  0  0  0  0  0  0  0
  -85.5445   28.5225    0.9303 C   0  0  0  0  0  0  0  0  0  0  0  0
  -85.4385   29.8379    0.4753 C   0  0  0  0  0  0  0  0  0  0  0  0
  -85.1315   30.8751    1.3207 C   0  0  0  0  0  0  0  0  0  0  0  0
  -84.9298   30.5660    2.6497 C   0  0  0  0  0  0  0  0  0  0  0  0
  -85.0340   29.2568    3.1102 C   0  0  0  0  0  0  0  0  0  0  0  0
  -87.3285   33.4318   -1.6515 C   0  0  0  0  0  0  0  0  0  0  0  0
  -87.2972   33.4071   -3.1513 C   0  0  0  0  0  0  0  0  0  0  0  0
  -87.3979   34.8144   -3.6667 C   0  0  0  0  0  0  0  0  0  0  0  0
  -88.7103   35.4791   -3.4056 C   0  0  0  0  0  0  0  0  0  0  0  0
  -89.7908   34.5327   -3.1898 N   0  0  0  0  0  0  0  0  0  0  0  0
  -89.5802   33.4634   -4.1779 C   0  0  0  0  0  0  0  0  0  0  0  0
  -88.4894   32.5708   -3.6033 C   0  0  0  0  0  0  0  0  0  0  0  0
  -90.6915   35.0028   -3.3253 H   0  0  0  0  0  0  0  0  0  0  0  0
  6  7  2  0  0  0
  7  8  1  0  0  0
  8  9  2  0  0  0
  9  3  1  0  0  0
  3  4  1  0  0  0
  4  5  1  0  0  0
  5  1  1  0  0  0
  1 12  1  0  0  0
 12 13  1  0  0  0
 13 14  1  0  0  0
 14 15  1  0  0  0
 15 16  1  0  0  0
 16 17  1  0  0  0
 17 18  1  0  0  0
  9 10  1  0  0  0
 10 11  2  0  0  0
 11  6  1  0  0  0
  5  3  1  0  0  0
 18 13  1  0  0  0
  1  2  1  0  0  0
 16 19  1  0  0  0
M  END
> <minimizedAffinity>
-6.46362

> <CNNscore>
0.3180339932

> <CNNaffinity>
4.8640394211

> <CNN_VS>
1.5469298363

> <CNNaffinity_variance>
0.1220272630

$$$$
[H]c1c([H])c([H])c([C@@]2([H])C([H])([H])[C@]2([H])N([H])C([H])([H])C2([H])C([H])([H])C([H])([H])N([H])C([H])([H])C2([H])[H])c([H])c1[H]


 19 21  0  0  0  0  0  0  0  0999 V2000
  -87.6349   32.4304   -1.9241 N   0  0  0  0  0  0  0  0  0  0  0  0
  -87.7122   33.1793   -2.6306 H   0  0  0  0  0  0  0  0  0  0  0  0
  -86.1264   32.2931    0.1300 C   0  0  0  0  0  0  0  0  0  0  0  0
  -85.8815   33.5976   -0.6348 C   0  0  0  0  0  0  0  0  0  0  0  0
  -86.3133   32.3077   -1.3405 C   0  0  0  0  0  0  0  0  0  0  0  0
  -82.7515   30.0588    1.5988 C   0  0  0  0  0  0  0  0  0  0  0  0
  -84.0416   29.7528    1.9771 C   0  0  0  0  0  0  0  0  0  0  0  0
  -85.1204   30.4914    1.4878 C   0  0  0  0  0  0  0  0  0  0  0  0
  -84.9464   31.5409    0.6199 C   0  0  0  0  0  0  0  0  0  0  0  0
  -83.6533   31.8413    0.2458 C   0  0  0  0  0  0  0  0  0  0  0  0
  -82.5732   31.1092    0.7299 C   0  0  0  0  0  0  0  0  0  0  0  0
  -87.9863   31.1222   -2.4366 C   0  0  0  0  0  0  0  0  0  0  0  0
  -88.7241   30.2695   -1.4470 C   0  0  0  0  0  0  0  0  0  0  0  0
  -87.7967   29.2082   -0.9273 C   0  0  0  0  0  0  0  0  0  0  0  0
  -87.3805   28.1952   -1.9436 C   0  0  0  0  0  0  0  0  0  0  0  0
  -88.3078   28.0969   -3.0572 N   0  0  0  0  0  0  0  0  0  0  0  0
  -89.6497   28.1750   -2.4596 C   0  0  0  0  0  0  0  0  0  0  0  0
  -89.9033   29.6515   -2.1903 C   0  0  0  0  0  0  0  0  0  0  0  0
  -88.1620   27.2091   -3.5483 H   0  0  0  0  0  0  0  0  0  0  0  0
  6  7  2  0  0  0
  7  8  1  0  0  0
  8  9  2  0  0  0
  9  3  1  0  0  0
  3  4  1  0  0  0
  4  5  1  0  0  0
  5  1  1  0  0  0
  1 12  1  0  0  0
 12 13  1  0  0  0
 13 14  1  0  0  0
 14 15  1  0  0  0
 15 16  1  0  0  0
 16 17  1  0  0  0
 17 18  1  0  0  0
  9 10  1  0  0  0
 10 11  2  0  0  0
 11  6  1  0  0  0
  5  3  1  0  0  0
 18 13  1  0  0  0
  1  2  1  0  0  0
 16 19  1  0  0  0
M  END
> <minimizedAffinity>
-6.94139

> <CNNscore>
0.2872073650

> <CNNaffinity>
4.8465223312

> <CNN_VS>
1.3919569254

> <CNNaffinity_variance>
0.3654504418

$$$$
[H]c1c([H])c([H])c([C@@]2([H])C([H])([H])[C@]2([H])N([H])C([H])([H])C2([H])C([H])([H])C([H])([H])N([H])C([H])([H])C2([H])[H])c([H])c1[H]


 19 21  0  0  0  0  0  0  0  0999 V2000
  -88.1745   33.0251   -1.2767 N   0  0  0  0  0  0  0  0  0  0  0  0
  -88.2085   33.8825   -1.8511 H   0  0  0  0  0  0  0  0  0  0  0  0
  -85.8468   33.0696   -0.2308 C   0  0  0  0  0  0  0  0  0  0  0  0
  -85.7733   33.3856   -1.7278 C   0  0  0  0  0  0  0  0  0  0  0  0
  -86.8457   32.4611   -1.1417 C   0  0  0  0  0  0  0  0  0  0  0  0
  -82.8667   30.4048    1.3684 C   0  0  0  0  0  0  0  0  0  0  0  0
  -82.5334   31.4320    0.5110 C   0  0  0  0  0  0  0  0  0  0  0  0
  -83.5169   32.2836    0.0051 C   0  0  0  0  0  0  0  0  0  0  0  0
  -84.8417   32.1378    0.3346 C   0  0  0  0  0  0  0  0  0  0  0  0
  -85.1679   31.1083    1.1926 C   0  0  0  0  0  0  0  0  0  0  0  0
  -84.1924   30.2555    1.7006 C   0  0  0  0  0  0  0  0  0  0  0  0
  -89.0266   31.9668   -1.7780 C   0  0  0  0  0  0  0  0  0  0  0  0
  -88.6645   30.6079   -1.2552 C   0  0  0  0  0  0  0  0  0  0  0  0
  -88.8457   29.5970   -2.3514 C   0  0  0  0  0  0  0  0  0  0  0  0
  -90.2631   29.3870   -2.7745 C   0  0  0  0  0  0  0  0  0  0  0  0
  -91.2214   29.7706   -1.7526 N   0  0  0  0  0  0  0  0  0  0  0  0
  -90.6521   29.2964   -0.4818 C   0  0  0  0  0  0  0  0  0  0  0  0
  -89.5998   30.3221   -0.0853 C   0  0  0  0  0  0  0  0  0  0  0  0
  -92.1273   29.3331   -1.9495 H   0  0  0  0  0  0  0  0  0  0  0  0
  6  7  2  0  0  0
  7  8  1  0  0  0
  8  9  2  0  0  0
  9  3  1  0  0  0
  3  4  1  0  0  0
  4  5  1  0  0  0
  5  1  1  0  0  0
  1 12  1  0  0  0
 12 13  1  0  0  0
 13 14  1  0  0  0
 14 15  1  0  0  0
 15 16  1  0  0  0
 16 17  1  0  0  0
 17 18  1  0  0  0
  9 10  1  0  0  0
 10 11  2  0  0  0
 11  6  1  0  0  0
  5  3  1  0  0  0
 18 13  1  0  0  0
  1  2  1  0  0  0
 16 19  1  0  0  0
M  END
> <minimizedAffinity>
-6.63109

> <CNNscore>
0.2866620421

> <CNNaffinity>
4.6267013550

> <CNN_VS>
1.3262996674

> <CNNaffinity_variance>
0.3967830539

$$$$
[H]c1c([H])c([H])c([C@@]2([H])C([H])([H])[C@]2([H])N([H])C([H])([H])C2([H])C([H])([H])C([H])([H])N([H])C([H])([H])C2([H])[H])c([H])c1[H]


 19 21  0  0  0  0  0  0  0  0999 V2000
  -85.8891   32.9955   -0.8497 N   0  0  0  0  0  0  0  0  0  0  0  0
  -85.6127   33.4232   -1.7478 H   0  0  0  0  0  0  0  0  0  0  0  0
  -84.4844   31.9850    1.0264 C   0  0  0  0  0  0  0  0  0  0  0  0
  -83.5857   32.5654   -0.0698 C   0  0  0  0  0  0  0  0  0  0  0  0
  -84.9689   31.9807   -0.3746 C   0  0  0  0  0  0  0  0  0  0  0  0
  -83.5384   28.1244    2.6818 C   0  0  0  0  0  0  0  0  0  0  0  0
  -84.8138   28.6449    2.7428 C   0  0  0  0  0  0  0  0  0  0  0  0
  -85.0969   29.8989    2.1990 C   0  0  0  0  0  0  0  0  0  0  0  0
  -84.1308   30.6591    1.5877 C   0  0  0  0  0  0  0  0  0  0  0  0
  -82.8574   30.1323    1.5303 C   0  0  0  0  0  0  0  0  0  0  0  0
  -82.5681   28.8827    2.0705 C   0  0  0  0  0  0  0  0  0  0  0  0
  -87.2007   32.3826   -0.8878 C   0  0  0  0  0  0  0  0  0  0  0  0
  -88.2249   33.2040   -1.6138 C   0  0  0  0  0  0  0  0  0  0  0  0
  -89.0044   32.3114   -2.5367 C   0  0  0  0  0  0  0  0  0  0  0  0
  -88.2127   31.7486   -3.6719 C   0  0  0  0  0  0  0  0  0  0  0  0
  -87.0332   32.5365   -3.9845 N   0  0  0  0  0  0  0  0  0  0  0  0
  -87.4593   33.9407   -3.8810 C   0  0  0  0  0  0  0  0  0  0  0  0
  -87.4629   34.2691   -2.3947 C   0  0  0  0  0  0  0  0  0  0  0  0
  -86.7072   32.3073   -4.9289 H   0  0  0  0  0  0  0  0  0  0  0  0
  6  7  2  0  0  0
  7  8  1  0  0  0
  8  9  2  0  0  0
  9  3  1  0  0  0
  3  4  1  0  0  0
  4  5  1  0  0  0
  5  1  1  0  0  0
  1 12  1  0  0  0
 12 13  1  0  0  0
 13 14  1  0  0  0
 14 15  1  0  0  0
 15 16  1  0  0  0
 16 17  1  0  0  0
 17 18  1  0  0  0
  9 10  1  0  0  0
 10 11  2  0  0  0
 11  6  1  0  0  0
  5  3  1  0  0  0
 18 13  1  0  0  0
  1  2  1  0  0  0
 16 19  1  0  0  0
M  END
> <minimizedAffinity>
-7.73363

> <CNNscore>
0.2800142169

> <CNNaffinity>
4.9888195992

> <CNN_VS>
1.3969404697

> <CNNaffinity_variance>
0.2306736708

$$$$
[H]c1c([H])c([H])c([C@@]2([H])C([H])([H])[C@]2([H])N([H])C([H])([H])C2([H])C([H])([H])C([H])([H])N([H])C([H])([H])C2([H])[H])c([H])c1[H]


 19 21  0  0  0  0  0  0  0  0999 V2000
  -88.9505   30.1727   -0.1653 N   0  0  0  0  0  0  0  0  0  0  0  0
  -89.6302   30.4586   -0.8880 H   0  0  0  0  0  0  0  0  0  0  0  0
  -86.8963   31.6859   -0.0981 C   0  0  0  0  0  0  0  0  0  0  0  0
  -87.4500   31.5884   -1.5230 C   0  0  0  0  0  0  0  0  0  0  0  0
  -87.5697   30.4349   -0.5214 C   0  0  0  0  0  0  0  0  0  0  0  0
  -82.6237   31.4953    0.4001 C   0  0  0  0  0  0  0  0  0  0  0  0
  -83.2344   32.5750   -0.2021 C   0  0  0  0  0  0  0  0  0  0  0  0
  -84.6216   32.6147   -0.3526 C   0  0  0  0  0  0  0  0  0  0  0  0
  -85.4281   31.5941    0.0866 C   0  0  0  0  0  0  0  0  0  0  0  0
  -84.8105   30.5174    0.6879 C   0  0  0  0  0  0  0  0  0  0  0  0
  -83.4280   30.4712    0.8411 C   0  0  0  0  0  0  0  0  0  0  0  0
  -89.0331   28.7670    0.1732 C   0  0  0  0  0  0  0  0  0  0  0  0
  -87.7561   28.2085    0.7285 C   0  0  0  0  0  0  0  0  0  0  0  0
  -87.3211   27.0459   -0.1174 C   0  0  0  0  0  0  0  0  0  0  0  0
  -88.2226   25.8565   -0.0491 C   0  0  0  0  0  0  0  0  0  0  0  0
  -89.0249   25.8234    1.1613 N   0  0  0  0  0  0  0  0  0  0  0  0
  -88.1230   26.2486    2.2428 C   0  0  0  0  0  0  0  0  0  0  0  0
  -88.0528   27.7667    2.1574 C   0  0  0  0  0  0  0  0  0  0  0  0
  -89.3785   24.8733    1.3132 H   0  0  0  0  0  0  0  0  0  0  0  0
  6  7  2  0  0  0
  7  8  1  0  0  0
  8  9  2  0  0  0
  9  3  1  0  0  0
  3  4  1  0  0  0
  4  5  1  0  0  0
  5  1  1  0  0  0
  1 12  1  0  0  0
 12 13  1  0  0  0
 13 14  1  0  0  0
 14 15  1  0  0  0
 15 16  1  0  0  0
 16 17  1  0  0  0
 17 18  1  0  0  0
  9 10  1  0  0  0
 10 11  2  0  0  0
 11  6  1  0  0  0
  5  3  1  0  0  0
 18 13  1  0  0  0
  1  2  1  0  0  0
 16 19  1  0  0  0
M  END
> <minimizedAffinity>
-6.46355

> <CNNscore>
0.2570302486

> <CNNaffinity>
4.8345403671

> <CNN_VS>
1.2426230907

> <CNNaffinity_variance>
0.4235938191

$$$$
[H]c1c([H])c([H])c([C@@]2([H])C([H])([H])[C@]2([H])N([H])C([H])([H])C2([H])C([H])([H])C([H])([H])N([H])C([H])([H])C2([H])[H])c([H])c1[H]


 19 21  0  0  0  0  0  0  0  0999 V2000
  -88.6619   33.4394   -1.7750 N   0  0  0  0  0  0  0  0  0  0  0  0
  -88.5396   34.4641   -1.7410 H   0  0  0  0  0  0  0  0  0  0  0  0
  -86.5764   32.9446   -0.3895 C   0  0  0  0  0  0  0  0  0  0  0  0
  -86.1970   33.5841   -1.7286 C   0  0  0  0  0  0  0  0  0  0  0  0
  -87.4348   32.6944   -1.5719 C   0  0  0  0  0  0  0  0  0  0  0  0
  -84.3199   29.5311    0.9506 C   0  0  0  0  0  0  0  0  0  0  0  0
  -85.5585   29.3932    0.3606 C   0  0  0  0  0  0  0  0  0  0  0  0
  -86.2718   30.5146   -0.0661 C   0  0  0  0  0  0  0  0  0  0  0  0
  -85.7780   31.7872    0.0809 C   0  0  0  0  0  0  0  0  0  0  0  0
  -84.5386   31.9176    0.6718 C   0  0  0  0  0  0  0  0  0  0  0  0
  -83.8220   30.8039    1.0997 C   0  0  0  0  0  0  0  0  0  0  0  0
  -89.2304   32.9724   -3.0225 C   0  0  0  0  0  0  0  0  0  0  0  0
  -89.4657   31.4911   -3.0561 C   0  0  0  0  0  0  0  0  0  0  0  0
  -90.0066   31.1114   -4.4051 C   0  0  0  0  0  0  0  0  0  0  0  0
  -91.3738   31.6383   -4.6968 C   0  0  0  0  0  0  0  0  0  0  0  0
  -92.1260   31.9559   -3.4955 N   0  0  0  0  0  0  0  0  0  0  0  0
  -91.8370   30.8660   -2.5508 C   0  0  0  0  0  0  0  0  0  0  0  0
  -90.4723   31.1794   -1.9540 C   0  0  0  0  0  0  0  0  0  0  0  0
  -93.1248   32.0093   -3.7195 H   0  0  0  0  0  0  0  0  0  0  0  0
  6  7  2  0  0  0
  7  8  1  0  0  0
  8  9  2  0  0  0
  9  3  1  0  0  0
  3  4  1  0  0  0
  4  5  1  0  0  0
  5  1  1  0  0  0
  1 12  1  0  0  0
 12 13  1  0  0  0
 13 14  1  0  0  0
 14 15  1  0  0  0
 15 16  1  0  0  0
 16 17  1  0  0  0
 17 18  1  0  0  0
  9 10  1  0  0  0
 10 11  2  0  0  0
 11  6  1  0  0  0
  5  3  1  0  0  0
 18 13  1  0  0  0
  1  2  1  0  0  0
 16 19  1  0  0  0
M  END
> <minimizedAffinity>
-5.84608

> <CNNscore>
0.2502536476

> <CNNaffinity>
4.4481458664

> <CNN_VS>
1.1131647825

> <CNNaffinity_variance>
0.1974396855

$$$$
[H]c1c([H])c([H])c([C@@]2([H])C([H])([H])[C@]2([H])N([H])C([H])([H])C2([H])C([H])([H])C([H])([H])N([H])C([H])([H])C2([H])[H])c([H])c1[H]


 19 21  0  0  0  0  0  0  0  0999 V2000
  -86.8454   27.8004    2.0756 N   0  0  0  0  0  0  0  0  0  0  0  0
  -87.1074   27.5009    3.0283 H   0  0  0  0  0  0  0  0  0  0  0  0
  -84.6960   29.0147    1.4280 C   0  0  0  0  0  0  0  0  0  0  0  0
  -84.8196   28.9087    2.9511 C   0  0  0  0  0  0  0  0  0  0  0  0
  -86.0467   29.0099    2.0389 C   0  0  0  0  0  0  0  0  0  0  0  0
  -83.4989   32.7909   -0.2593 C   0  0  0  0  0  0  0  0  0  0  0  0
  -84.8223   32.4065   -0.2123 C   0  0  0  0  0  0  0  0  0  0  0  0
  -85.1867   31.1773    0.3397 C   0  0  0  0  0  0  0  0  0  0  0  0
  -84.2558   30.3085    0.8532 C   0  0  0  0  0  0  0  0  0  0  0  0
  -82.9341   30.6994    0.8028 C   0  0  0  0  0  0  0  0  0  0  0  0
  -82.5638   31.9235    0.2538 C   0  0  0  0  0  0  0  0  0  0  0  0
  -87.9868   28.0294    1.2140 C   0  0  0  0  0  0  0  0  0  0  0  0
  -88.9814   26.9063    1.2261 C   0  0  0  0  0  0  0  0  0  0  0  0
  -90.3613   27.4756    1.3939 C   0  0  0  0  0  0  0  0  0  0  0  0
  -90.6132   28.1126    2.7216 C   0  0  0  0  0  0  0  0  0  0  0  0
  -89.7193   27.6296    3.7596 N   0  0  0  0  0  0  0  0  0  0  0  0
  -89.6075   26.1795    3.5389 C   0  0  0  0  0  0  0  0  0  0  0  0
  -88.6137   26.0044    2.3994 C   0  0  0  0  0  0  0  0  0  0  0  0
  -90.1147   27.8441    4.6807 H   0  0  0  0  0  0  0  0  0  0  0  0
  6  7  2  0  0  0
  7  8  1  0  0  0
  8  9  2  0  0  0
  9  3  1  0  0  0
  3  4  1  0  0  0
  4  5  1  0  0  0
  5  1  1  0  0  0
  1 12  1  0  0  0
 12 13  1  0  0  0
 13 14  1  0  0  0
 14 15  1  0  0  0
 15 16  1  0  0  0
 16 17  1  0  0  0
 17 18  1  0  0  0
  9 10  1  0  0  0
 10 11  2  0  0  0
 11  6  1  0  0  0
  5  3  1  0  0  0
 18 13  1  0  0  0
  1  2  1  0  0  0
 16 19  1  0  0  0
M  END
> <minimizedAffinity>
-6.73819

> <CNNscore>
0.2439241111

> <CNNaffinity>
4.8381943703

> <CNN_VS>
1.1801522970

> <CNNaffinity_variance>
0.2451264113

$$$$
[H]OC([H])([H])C(F)(F)C([H])([H])N1[C@]([H])(c2c(F)c([H])nc(OC([H])([H])C([H])([H])N([H])C([H])([H])C([H])([H])C([H])([H])F)c2F)c2c(c3c([H])c([H])c([H])c([H])c3n2[H])C([H])([H])[C@@]1([H])C([H])([H])[H]


 39 42  0  0  0  0  0  0  0  0999 V2000
  -86.6018   32.6685   -2.9507 C   0  0  0  0  0  0  0  0  0  0  0  0
  -87.8446   32.7842   -2.1097 C   0  0  0  0  0  0  0  0  0  0  0  0
  -87.2575   32.9281   -0.6748 C   0  0  0  0  0  0  0  0  0  0  0  0
  -86.6919   31.6024   -0.3643 C   0  0  0  0  0  0  0  0  0  0  0  0
  -87.2499   30.4700   -0.8994 C   0  0  0  0  0  0  0  0  0  0  0  0
  -86.5111   29.4399   -0.4317 N   0  0  0  0  0  0  0  0  0  0  0  0
  -85.5231   29.8616    0.3653 C   0  0  0  0  0  0  0  0  0  0  0  0
  -84.5164   29.2361    1.0771 C   0  0  0  0  0  0  0  0  0  0  0  0
  -83.6277   29.9714    1.8282 C   0  0  0  0  0  0  0  0  0  0  0  0
  -83.7170   31.3659    1.8926 C   0  0  0  0  0  0  0  0  0  0  0  0
  -84.7290   31.9604    1.1735 C   0  0  0  0  0  0  0  0  0  0  0  0
  -85.6223   31.2371    0.4202 C   0  0  0  0  0  0  0  0  0  0  0  0
  -88.4352   30.4710   -1.8054 C   0  0  0  0  0  0  0  0  0  0  0  0
  -88.8083   31.7941   -2.1971 N   0  0  0  0  0  0  0  0  0  0  0  0
  -86.6786   28.4372   -0.6560 H   0  0  0  0  0  0  0  0  0  0  0  0
  -89.4746   29.5480   -1.3801 C   0  0  0  0  0  0  0  0  0  0  0  0
  -90.2716   29.7750   -0.2788 C   0  0  0  0  0  0  0  0  0  0  0  0
  -90.0809   30.8822    0.4273 F   0  0  0  0  0  0  0  0  0  0  0  0
  -91.2609   28.8915    0.1151 C   0  0  0  0  0  0  0  0  0  0  0  0
  -91.4575   27.7683   -0.5974 N   0  0  0  0  0  0  0  0  0  0  0  0
  -90.7262   27.4692   -1.6834 C   0  0  0  0  0  0  0  0  0  0  0  0
  -89.7402   28.3649   -2.0634 C   0  0  0  0  0  0  0  0  0  0  0  0
  -89.0213   28.0265   -3.1660 F   0  0  0  0  0  0  0  0  0  0  0  0
  -90.9707   26.3121   -2.3706 O   0  0  0  0  0  0  0  0  0  0  0  0
  -90.7371   25.0036   -1.9536 C   0  0  0  0  0  0  0  0  0  0  0  0
  -89.3306   24.6929   -1.5757 C   0  0  0  0  0  0  0  0  0  0  0  0
  -89.2074   24.2516   -0.1971 N   0  0  0  0  0  0  0  0  0  0  0  0
  -89.9635   23.6315    0.1154 H   0  0  0  0  0  0  0  0  0  0  0  0
  -88.9376   25.3229    0.7169 C   0  0  0  0  0  0  0  0  0  0  0  0
  -87.6474   26.0407    0.4087 C   0  0  0  0  0  0  0  0  0  0  0  0
  -86.9406   26.5529    1.6290 C   0  0  0  0  0  0  0  0  0  0  0  0
  -87.5644   27.6311    2.2156 F   0  0  0  0  0  0  0  0  0  0  0  0
  -90.0949   31.9612   -2.6484 C   0  0  0  0  0  0  0  0  0  0  0  0
  -90.5958   31.8415   -4.0064 C   0  0  0  0  0  0  0  0  0  0  0  0
  -91.4174   30.7374   -4.2318 F   0  0  0  0  0  0  0  0  0  0  0  0
  -91.5946   32.8950   -4.2140 F   0  0  0  0  0  0  0  0  0  0  0  0
  -89.7261   32.0226   -5.1930 C   0  0  0  0  0  0  0  0  0  0  0  0
  -88.7454   31.1272   -5.4548 O   0  0  0  0  0  0  0  0  0  0  0  0
  -89.0438   30.3925   -6.0398 H   0  0  0  0  0  0  0  0  0  0  0  0
  1  2  1  0  0  0
  2  3  1  0  0  0
  3  4  1  0  0  0
  4  5  2  0  0  0
  5  6  1  0  0  0
  6  7  1  0  0  0
  7  8  2  0  0  0
  8  9  1  0  0  0
  9 10  2  0  0  0
 10 11  1  0  0  0
 11 12  2  0  0  0
  5 13  1  0  0  0
 13 16  1  0  0  0
 16 17  2  0  0  0
 17 18  1  0  0  0
 17 19  1  0  0  0
 19 20  2  0  0  0
 20 21  1  0  0  0
 21 24  1  0  0  0
 24 25  1  0  0  0
 25 26  1  0  0  0
 26 27  1  0  0  0
 27 29  1  0  0  0
 29 30  1  0  0  0
 30 31  1  0  0  0
 31 32  1  0  0  0
 21 22  2  0  0  0
 22 23  1  0  0  0
 13 14  1  0  0  0
 14 33  1  0  0  0
 33 34  1  0  0  0
 34 35  1  0  0  0
 34 36  1  0  0  0
 34 37  1  0  0  0
 37 38  1  0  0  0
 14  2  1  0  0  0
 12  4  1  0  0  0
 22 16  1  0  0  0
 12  7  1  0  0  0
  6 15  1  0  0  0
 27 28  1  0  0  0
 38 39  1  0  0  0
M  END
> <minimizedAffinity>
-7.96498

> <CNNscore>
0.2714852393

> <CNNaffinity>
6.7301192284

> <CNN_VS>
1.8271280527

> <CNNaffinity_variance>
0.7002927065

$$$$
[H]OC([H])([H])C(F)(F)C([H])([H])N1[C@]([H])(c2c(F)c([H])nc(OC([H])([H])C([H])([H])N([H])C([H])([H])C([H])([H])C([H])([H])F)c2F)c2c(c3c([H])c([H])c([H])c([H])c3n2[H])C([H])([H])[C@@]1([H])C([H])([H])[H]


 39 42  0  0  0  0  0  0  0  0999 V2000
  -86.6866   32.5277   -2.9760 C   0  0  0  0  0  0  0  0  0  0  0  0
  -87.9343   32.6628   -2.1451 C   0  0  0  0  0  0  0  0  0  0  0  0
  -87.3558   32.8293   -0.7092 C   0  0  0  0  0  0  0  0  0  0  0  0
  -86.7973   31.5071   -0.3721 C   0  0  0  0  0  0  0  0  0  0  0  0
  -87.3565   30.3677   -0.8911 C   0  0  0  0  0  0  0  0  0  0  0  0
  -86.6247   29.3430   -0.4009 N   0  0  0  0  0  0  0  0  0  0  0  0
  -85.6402   29.7747    0.3950 C   0  0  0  0  0  0  0  0  0  0  0  0
  -84.6405   29.1578    1.1241 C   0  0  0  0  0  0  0  0  0  0  0  0
  -83.7537   29.9026    1.8680 C   0  0  0  0  0  0  0  0  0  0  0  0
  -83.8378   31.2984    1.9076 C   0  0  0  0  0  0  0  0  0  0  0  0
  -84.8429   31.8842    1.1718 C   0  0  0  0  0  0  0  0  0  0  0  0
  -85.7343   31.1514    0.4255 C   0  0  0  0  0  0  0  0  0  0  0  0
  -88.5359   30.3575   -1.8046 C   0  0  0  0  0  0  0  0  0  0  0  0
  -88.9013   31.6750   -2.2216 N   0  0  0  0  0  0  0  0  0  0  0  0
  -86.7948   28.3372   -0.6088 H   0  0  0  0  0  0  0  0  0  0  0  0
  -89.5817   29.4460   -1.3700 C   0  0  0  0  0  0  0  0  0  0  0  0
  -90.3248   29.6506   -0.2274 C   0  0  0  0  0  0  0  0  0  0  0  0
  -90.0738   30.7239    0.5113 F   0  0  0  0  0  0  0  0  0  0  0  0
  -91.3207   28.7784    0.1752 C   0  0  0  0  0  0  0  0  0  0  0  0
  -91.5784   27.6895   -0.5703 N   0  0  0  0  0  0  0  0  0  0  0  0
  -90.9023   27.4141   -1.6975 C   0  0  0  0  0  0  0  0  0  0  0  0
  -89.9087   28.2980   -2.0856 C   0  0  0  0  0  0  0  0  0  0  0  0
  -89.2468   27.9843   -3.2304 F   0  0  0  0  0  0  0  0  0  0  0  0
  -91.2077   26.2916   -2.4169 O   0  0  0  0  0  0  0  0  0  0  0  0
  -90.9417   24.9647   -2.0864 C   0  0  0  0  0  0  0  0  0  0  0  0
  -89.5975   24.7077   -1.4993 C   0  0  0  0  0  0  0  0  0  0  0  0
  -89.3777   23.3029   -1.2012 N   0  0  0  0  0  0  0  0  0  0  0  0
  -89.4871   22.6792   -2.0093 H   0  0  0  0  0  0  0  0  0  0  0  0
  -90.0866   22.8547   -0.0382 C   0  0  0  0  0  0  0  0  0  0  0  0
  -89.7872   21.4176    0.3087 C   0  0  0  0  0  0  0  0  0  0  0  0
  -90.0926   21.0698    1.7359 C   0  0  0  0  0  0  0  0  0  0  0  0
  -89.4643   19.9245    2.1708 F   0  0  0  0  0  0  0  0  0  0  0  0
  -90.1844   31.8392   -2.6839 C   0  0  0  0  0  0  0  0  0  0  0  0
  -90.6683   31.7460   -4.0502 C   0  0  0  0  0  0  0  0  0  0  0  0
  -91.4562   30.6266   -4.3166 F   0  0  0  0  0  0  0  0  0  0  0  0
  -91.6942   32.7769   -4.2374 F   0  0  0  0  0  0  0  0  0  0  0  0
  -89.7924   31.9862   -5.2216 C   0  0  0  0  0  0  0  0  0  0  0  0
  -88.7800   31.1305   -5.4950 O   0  0  0  0  0  0  0  0  0  0  0  0
  -89.0478   30.4020   -6.1022 H   0  0  0  0  0  0  0  0  0  0  0  0
  1  2  1  0  0  0
  2  3  1  0  0  0
  3  4  1  0  0  0
  4  5  2  0  0  0
  5  6  1  0  0  0
  6  7  1  0  0  0
  7  8  2  0  0  0
  8  9  1  0  0  0
  9 10  2  0  0  0
 10 11  1  0  0  0
 11 12  2  0  0  0
  5 13  1  0  0  0
 13 16  1  0  0  0
 16 17  2  0  0  0
 17 18  1  0  0  0
 17 19  1  0  0  0
 19 20  2  0  0  0
 20 21  1  0  0  0
 21 24  1  0  0  0
 24 25  1  0  0  0
 25 26  1  0  0  0
 26 27  1  0  0  0
 27 29  1  0  0  0
 29 30  1  0  0  0
 30 31  1  0  0  0
 31 32  1  0  0  0
 21 22  2  0  0  0
 22 23  1  0  0  0
 13 14  1  0  0  0
 14 33  1  0  0  0
 33 34  1  0  0  0
 34 35  1  0  0  0
 34 36  1  0  0  0
 34 37  1  0  0  0
 37 38  1  0  0  0
 14  2  1  0  0  0
 12  4  1  0  0  0
 22 16  1  0  0  0
 12  7  1  0  0  0
  6 15  1  0  0  0
 27 28  1  0  0  0
 38 39  1  0  0  0
M  END
> <minimizedAffinity>
-7.81648

> <CNNscore>
0.2254405916

> <CNNaffinity>
6.5155611038

> <CNN_VS>
1.4688719511

> <CNNaffinity_variance>
0.4852812886

$$$$
[H]OC([H])([H])C(F)(F)C([H])([H])N1[C@]([H])(c2c(F)c([H])nc(OC([H])([H])C([H])([H])N([H])C([H])([H])C([H])([H])C([H])([H])F)c2F)c2c(c3c([H])c([H])c([H])c([H])c3n2[H])C([H])([H])[C@@]1([H])C([H])([H])[H]


 39 42  0  0  0  0  0  0  0  0999 V2000
  -89.2419   27.8863    1.1909 C   0  0  0  0  0  0  0  0  0  0  0  0
  -88.8840   27.5612   -0.2344 C   0  0  0  0  0  0  0  0  0  0  0  0
  -87.3300   27.4862   -0.1735 C   0  0  0  0  0  0  0  0  0  0  0  0
  -86.8933   28.8787    0.0362 C   0  0  0  0  0  0  0  0  0  0  0  0
  -87.6331   29.9183   -0.4656 C   0  0  0  0  0  0  0  0  0  0  0  0
  -86.9773   31.0436   -0.1056 N   0  0  0  0  0  0  0  0  0  0  0  0
  -85.8698   30.7687    0.5922 C   0  0  0  0  0  0  0  0  0  0  0  0
  -84.8761   31.5323    1.1761 C   0  0  0  0  0  0  0  0  0  0  0  0
  -83.8340   30.9330    1.8465 C   0  0  0  0  0  0  0  0  0  0  0  0
  -83.7507   29.5408    1.9559 C   0  0  0  0  0  0  0  0  0  0  0  0
  -84.7542   28.8072    1.3648 C   0  0  0  0  0  0  0  0  0  0  0  0
  -85.7995   29.3939    0.6927 C   0  0  0  0  0  0  0  0  0  0  0  0
  -88.8953   29.7467   -1.2423 C   0  0  0  0  0  0  0  0  0  0  0  0
  -89.3409   28.3886   -1.2461 N   0  0  0  0  0  0  0  0  0  0  0  0
  -87.2847   32.0112   -0.3359 H   0  0  0  0  0  0  0  0  0  0  0  0
  -88.8959   30.4867   -2.4936 C   0  0  0  0  0  0  0  0  0  0  0  0
  -88.0485   30.1889   -3.5391 C   0  0  0  0  0  0  0  0  0  0  0  0
  -87.1918   29.1856   -3.3977 F   0  0  0  0  0  0  0  0  0  0  0  0
  -88.0601   30.8974   -4.7275 C   0  0  0  0  0  0  0  0  0  0  0  0
  -88.9265   31.9149   -4.8751 N   0  0  0  0  0  0  0  0  0  0  0  0
  -89.7866   32.2722   -3.9073 C   0  0  0  0  0  0  0  0  0  0  0  0
  -89.7613   31.5520   -2.7243 C   0  0  0  0  0  0  0  0  0  0  0  0
  -90.6453   31.9444   -1.7695 F   0  0  0  0  0  0  0  0  0  0  0  0
  -90.6466   33.3157   -4.1129 O   0  0  0  0  0  0  0  0  0  0  0  0
  -90.5324   34.3487   -5.0405 C   0  0  0  0  0  0  0  0  0  0  0  0
  -89.5282   35.3977   -4.7110 C   0  0  0  0  0  0  0  0  0  0  0  0
  -88.2219   35.1193   -5.2825 N   0  0  0  0  0  0  0  0  0  0  0  0
  -88.1607   34.2203   -5.7744 H   0  0  0  0  0  0  0  0  0  0  0  0
  -87.1445   35.3368   -4.3616 C   0  0  0  0  0  0  0  0  0  0  0  0
  -87.4733   34.8806   -2.9620 C   0  0  0  0  0  0  0  0  0  0  0  0
  -86.6065   33.7548   -2.4799 C   0  0  0  0  0  0  0  0  0  0  0  0
  -86.0779   33.9640   -1.2259 F   0  0  0  0  0  0  0  0  0  0  0  0
  -90.2061   28.0288   -2.2506 C   0  0  0  0  0  0  0  0  0  0  0  0
  -91.6518   28.1640   -2.2855 C   0  0  0  0  0  0  0  0  0  0  0  0
  -92.3522   27.1112   -1.6975 F   0  0  0  0  0  0  0  0  0  0  0  0
  -92.0294   29.2224   -1.3433 F   0  0  0  0  0  0  0  0  0  0  0  0
  -92.3816   28.5823   -3.5060 C   0  0  0  0  0  0  0  0  0  0  0  0
  -91.7212   29.2126   -4.5053 O   0  0  0  0  0  0  0  0  0  0  0  0
  -91.3631   28.5900   -5.1800 H   0  0  0  0  0  0  0  0  0  0  0  0
  1  2  1  0  0  0
  2  3  1  0  0  0
  3  4  1  0  0  0
  4  5  2  0  0  0
  5  6  1  0  0  0
  6  7  1  0  0  0
  7  8  2  0  0  0
  8  9  1  0  0  0
  9 10  2  0  0  0
 10 11  1  0  0  0
 11 12  2  0  0  0
  5 13  1  0  0  0
 13 16  1  0  0  0
 16 17  2  0  0  0
 17 18  1  0  0  0
 17 19  1  0  0  0
 19 20  2  0  0  0
 20 21  1  0  0  0
 21 24  1  0  0  0
 24 25  1  0  0  0
 25 26  1  0  0  0
 26 27  1  0  0  0
 27 29  1  0  0  0
 29 30  1  0  0  0
 30 31  1  0  0  0
 31 32  1  0  0  0
 21 22  2  0  0  0
 22 23  1  0  0  0
 13 14  1  0  0  0
 14 33  1  0  0  0
 33 34  1  0  0  0
 34 35  1  0  0  0
 34 36  1  0  0  0
 34 37  1  0  0  0
 37 38  1  0  0  0
 14  2  1  0  0  0
 12  4  1  0  0  0
 22 16  1  0  0  0
 12  7  1  0  0  0
  6 15  1  0  0  0
 27 28  1  0  0  0
 38 39  1  0  0  0
M  END
> <minimizedAffinity>
-7.73586

> <CNNscore>
0.1788687706

> <CNNaffinity>
6.6729736328

> <CNN_VS>
1.1935865879

> <CNNaffinity_variance>
0.3773775995

$$$$
[H]OC([H])([H])C(F)(F)C([H])([H])N1[C@]([H])(c2c(F)c([H])nc(OC([H])([H])C([H])([H])N([H])C([H])([H])C([H])([H])C([H])([H])F)c2F)c2c(c3c([H])c([H])c([H])c([H])c3n2[H])C([H])([H])[C@@]1([H])C([H])([H])[H]


 39 42  0  0  0  0  0  0  0  0999 V2000
  -85.7197   33.4841   -2.3765 C   0  0  0  0  0  0  0  0  0  0  0  0
  -87.0586   33.6270   -1.7039 C   0  0  0  0  0  0  0  0  0  0  0  0
  -86.7128   33.3227   -0.2166 C   0  0  0  0  0  0  0  0  0  0  0  0
  -86.4077   31.8805   -0.1880 C   0  0  0  0  0  0  0  0  0  0  0  0
  -87.0239   31.0260   -1.0656 C   0  0  0  0  0  0  0  0  0  0  0  0
  -86.5342   29.7976   -0.7876 N   0  0  0  0  0  0  0  0  0  0  0  0
  -85.6476   29.8336    0.2133 C   0  0  0  0  0  0  0  0  0  0  0  0
  -84.8802   28.8858    0.8646 C   0  0  0  0  0  0  0  0  0  0  0  0
  -84.0369   29.2501    1.8895 C   0  0  0  0  0  0  0  0  0  0  0  0
  -83.9323   30.5834    2.2998 C   0  0  0  0  0  0  0  0  0  0  0  0
  -84.7081   31.5042    1.6329 C   0  0  0  0  0  0  0  0  0  0  0  0
  -85.5539   31.1528    0.6083 C   0  0  0  0  0  0  0  0  0  0  0  0
  -88.0224   31.4553   -2.0875 C   0  0  0  0  0  0  0  0  0  0  0  0
  -88.1263   32.8786   -2.1693 N   0  0  0  0  0  0  0  0  0  0  0  0
  -86.8045   28.9230   -1.2832 H   0  0  0  0  0  0  0  0  0  0  0  0
  -89.2425   30.6656   -2.0546 C   0  0  0  0  0  0  0  0  0  0  0  0
  -89.8829   30.2308   -3.1950 C   0  0  0  0  0  0  0  0  0  0  0  0
  -89.3667   30.5489   -4.3752 F   0  0  0  0  0  0  0  0  0  0  0  0
  -91.0419   29.4762   -3.1523 C   0  0  0  0  0  0  0  0  0  0  0  0
  -91.5685   29.1516   -1.9585 N   0  0  0  0  0  0  0  0  0  0  0  0
  -91.0094   29.5339   -0.7988 C   0  0  0  0  0  0  0  0  0  0  0  0
  -89.8496   30.2887   -0.8602 C   0  0  0  0  0  0  0  0  0  0  0  0
  -89.3150   30.6570    0.3338 F   0  0  0  0  0  0  0  0  0  0  0  0
  -91.5887   29.1740    0.3869 O   0  0  0  0  0  0  0  0  0  0  0  0
  -91.2809   28.0799    1.1923 C   0  0  0  0  0  0  0  0  0  0  0  0
  -90.1772   27.2108    0.6983 C   0  0  0  0  0  0  0  0  0  0  0  0
  -89.3407   26.7055    1.7732 N   0  0  0  0  0  0  0  0  0  0  0  0
  -88.4331   26.3390    1.4635 H   0  0  0  0  0  0  0  0  0  0  0  0
  -90.0363   25.8213    2.6622 C   0  0  0  0  0  0  0  0  0  0  0  0
  -89.4885   25.8581    4.0671 C   0  0  0  0  0  0  0  0  0  0  0  0
  -90.2740   26.7390    4.9934 C   0  0  0  0  0  0  0  0  0  0  0  0
  -90.5574   27.9792    4.4667 F   0  0  0  0  0  0  0  0  0  0  0  0
  -89.2779   33.3794   -2.7261 C   0  0  0  0  0  0  0  0  0  0  0  0
  -89.4120   34.3264   -3.8192 C   0  0  0  0  0  0  0  0  0  0  0  0
  -90.7264   34.6368   -4.1664 F   0  0  0  0  0  0  0  0  0  0  0  0
  -89.0056   35.6462   -3.3259 F   0  0  0  0  0  0  0  0  0  0  0  0
  -88.6159   34.2199   -5.0650 C   0  0  0  0  0  0  0  0  0  0  0  0
  -87.3081   34.5686   -5.0630 O   0  0  0  0  0  0  0  0  0  0  0  0
  -86.7104   33.8122   -4.8585 H   0  0  0  0  0  0  0  0  0  0  0  0
  1  2  1  0  0  0
  2  3  1  0  0  0
  3  4  1  0  0  0
  4  5  2  0  0  0
  5  6  1  0  0  0
  6  7  1  0  0  0
  7  8  2  0  0  0
  8  9  1  0  0  0
  9 10  2  0  0  0
 10 11  1  0  0  0
 11 12  2  0  0  0
  5 13  1  0  0  0
 13 16  1  0  0  0
 16 17  2  0  0  0
 17 18  1  0  0  0
 17 19  1  0  0  0
 19 20  2  0  0  0
 20 21  1  0  0  0
 21 24  1  0  0  0
 24 25  1  0  0  0
 25 26  1  0  0  0
 26 27  1  0  0  0
 27 29  1  0  0  0
 29 30  1  0  0  0
 30 31  1  0  0  0
 31 32  1  0  0  0
 21 22  2  0  0  0
 22 23  1  0  0  0
 13 14  1  0  0  0
 14 33  1  0  0  0
 33 34  1  0  0  0
 34 35  1  0  0  0
 34 36  1  0  0  0
 34 37  1  0  0  0
 37 38  1  0  0  0
 14  2  1  0  0  0
 12  4  1  0  0  0
 22 16  1  0  0  0
 12  7  1  0  0  0
  6 15  1  0  0  0
 27 28  1  0  0  0
 38 39  1  0  0  0
M  END
> <minimizedAffinity>
-7.63857

> <CNNscore>
0.1784678102

> <CNNaffinity>
6.7617483139

> <CNN_VS>
1.2067544460

> <CNNaffinity_variance>
0.2876722813

$$$$
[H]OC([H])([H])C(F)(F)C([H])([H])N1[C@]([H])(c2c(F)c([H])nc(OC([H])([H])C([H])([H])N([H])C([H])([H])C([H])([H])C([H])([H])F)c2F)c2c(c3c([H])c([H])c([H])c([H])c3n2[H])C([H])([H])[C@@]1([H])C([H])([H])[H]


 39 42  0  0  0  0  0  0  0  0999 V2000
  -85.0362   33.2289   -1.8466 C   0  0  0  0  0  0  0  0  0  0  0  0
  -86.3965   33.6103   -1.3276 C   0  0  0  0  0  0  0  0  0  0  0  0
  -86.3442   33.0938    0.1403 C   0  0  0  0  0  0  0  0  0  0  0  0
  -86.3632   31.6242    0.0237 C   0  0  0  0  0  0  0  0  0  0  0  0
  -87.0139   31.0220   -1.0222 C   0  0  0  0  0  0  0  0  0  0  0  0
  -86.8449   29.6932   -0.8441 N   0  0  0  0  0  0  0  0  0  0  0  0
  -86.1265   29.4286    0.2527 C   0  0  0  0  0  0  0  0  0  0  0  0
  -85.6836   28.2721    0.8671 C   0  0  0  0  0  0  0  0  0  0  0  0
  -84.9400   28.3332    2.0238 C   0  0  0  0  0  0  0  0  0  0  0  0
  -84.6126   29.5613    2.6082 C   0  0  0  0  0  0  0  0  0  0  0  0
  -85.0673   30.6952    1.9740 C   0  0  0  0  0  0  0  0  0  0  0  0
  -85.8105   30.6470    0.8190 C   0  0  0  0  0  0  0  0  0  0  0  0
  -87.7375   31.7649   -2.0946 C   0  0  0  0  0  0  0  0  0  0  0  0
  -87.5205   33.1751   -2.0086 N   0  0  0  0  0  0  0  0  0  0  0  0
  -87.2215   28.9555   -1.4748 H   0  0  0  0  0  0  0  0  0  0  0  0
  -89.0901   31.2770   -2.3086 C   0  0  0  0  0  0  0  0  0  0  0  0
  -89.9983   31.1172   -1.2843 C   0  0  0  0  0  0  0  0  0  0  0  0
  -89.6224   31.4181   -0.0478 F   0  0  0  0  0  0  0  0  0  0  0  0
  -91.2848   30.6555   -1.4995 C   0  0  0  0  0  0  0  0  0  0  0  0
  -91.6700   30.3494   -2.7508 N   0  0  0  0  0  0  0  0  0  0  0  0
  -90.8491   30.4753   -3.8063 C   0  0  0  0  0  0  0  0  0  0  0  0
  -89.5648   30.9389   -3.5725 C   0  0  0  0  0  0  0  0  0  0  0  0
  -88.7644   31.0514   -4.6650 F   0  0  0  0  0  0  0  0  0  0  0  0
  -91.2951   30.1494   -5.0576 O   0  0  0  0  0  0  0  0  0  0  0  0
  -92.6027   29.8835   -5.4576 C   0  0  0  0  0  0  0  0  0  0  0  0
  -93.4689   31.0790   -5.6523 C   0  0  0  0  0  0  0  0  0  0  0  0
  -93.0342   31.9086   -6.7629 N   0  0  0  0  0  0  0  0  0  0  0  0
  -92.4378   31.4228   -7.4428 H   0  0  0  0  0  0  0  0  0  0  0  0
  -92.5067   33.1759   -6.3487 C   0  0  0  0  0  0  0  0  0  0  0  0
  -91.5955   33.7929   -7.3803 C   0  0  0  0  0  0  0  0  0  0  0  0
  -91.3529   35.2579   -7.1655 C   0  0  0  0  0  0  0  0  0  0  0  0
  -90.0299   35.6206   -7.2823 F   0  0  0  0  0  0  0  0  0  0  0  0
  -88.4443   33.9779   -2.6325 C   0  0  0  0  0  0  0  0  0  0  0  0
  -88.4029   34.5201   -3.9793 C   0  0  0  0  0  0  0  0  0  0  0  0
  -87.4376   33.9513   -4.8095 F   0  0  0  0  0  0  0  0  0  0  0  0
  -89.5968   34.0532   -4.6912 F   0  0  0  0  0  0  0  0  0  0  0  0
  -88.4488   35.9765   -4.2514 C   0  0  0  0  0  0  0  0  0  0  0  0
  -88.1896   36.8580   -3.2575 O   0  0  0  0  0  0  0  0  0  0  0  0
  -87.2371   37.1052   -3.2036 H   0  0  0  0  0  0  0  0  0  0  0  0
  1  2  1  0  0  0
  2  3  1  0  0  0
  3  4  1  0  0  0
  4  5  2  0  0  0
  5  6  1  0  0  0
  6  7  1  0  0  0
  7  8  2  0  0  0
  8  9  1  0  0  0
  9 10  2  0  0  0
 10 11  1  0  0  0
 11 12  2  0  0  0
  5 13  1  0  0  0
 13 16  1  0  0  0
 16 17  2  0  0  0
 17 18  1  0  0  0
 17 19  1  0  0  0
 19 20  2  0  0  0
 20 21  1  0  0  0
 21 24  1  0  0  0
 24 25  1  0  0  0
 25 26  1  0  0  0
 26 27  1  0  0  0
 27 29  1  0  0  0
 29 30  1  0  0  0
 30 31  1  0  0  0
 31 32  1  0  0  0
 21 22  2  0  0  0
 22 23  1  0  0  0
 13 14  1  0  0  0
 14 33  1  0  0  0
 33 34  1  0  0  0
 34 35  1  0  0  0
 34 36  1  0  0  0
 34 37  1  0  0  0
 37 38  1  0  0  0
 14  2  1  0  0  0
 12  4  1  0  0  0
 22 16  1  0  0  0
 12  7  1  0  0  0
  6 15  1  0  0  0
 27 28  1  0  0  0
 38 39  1  0  0  0
M  END
> <minimizedAffinity>
-7.19646

> <CNNscore>
0.1748896390

> <CNNaffinity>
6.4669685364

> <CNN_VS>
1.1310057640

> <CNNaffinity_variance>
0.2943840027

$$$$
[H]OC([H])([H])C(F)(F)C([H])([H])N1[C@]([H])(c2c(F)c([H])nc(OC([H])([H])C([H])([H])N([H])C([H])([H])C([H])([H])C([H])([H])F)c2F)c2c(c3c([H])c([H])c([H])c([H])c3n2[H])C([H])([H])[C@@]1([H])C([H])([H])[H]


 39 42  0  0  0  0  0  0  0  0999 V2000
  -85.7009   33.5065   -2.3870 C   0  0  0  0  0  0  0  0  0  0  0  0
  -87.0422   33.6350   -1.7163 C   0  0  0  0  0  0  0  0  0  0  0  0
  -86.6944   33.3388   -0.2279 C   0  0  0  0  0  0  0  0  0  0  0  0
  -86.3720   31.9005   -0.1951 C   0  0  0  0  0  0  0  0  0  0  0  0
  -86.9767   31.0363   -1.0711 C   0  0  0  0  0  0  0  0  0  0  0  0
  -86.4725   29.8147   -0.7893 N   0  0  0  0  0  0  0  0  0  0  0  0
  -85.5875   29.8640    0.2125 C   0  0  0  0  0  0  0  0  0  0  0  0
  -84.8095   28.9273    0.8671 C   0  0  0  0  0  0  0  0  0  0  0  0
  -83.9718   29.3045    1.8920 C   0  0  0  0  0  0  0  0  0  0  0  0
  -83.8838   30.6400    2.2988 C   0  0  0  0  0  0  0  0  0  0  0  0
  -84.6699   31.5497    1.6287 C   0  0  0  0  0  0  0  0  0  0  0  0
  -85.5102   31.1853    0.6041 C   0  0  0  0  0  0  0  0  0  0  0  0
  -87.9793   31.4508   -2.0952 C   0  0  0  0  0  0  0  0  0  0  0  0
  -88.1002   32.8725   -2.1809 N   0  0  0  0  0  0  0  0  0  0  0  0
  -86.7316   28.9355   -1.2828 H   0  0  0  0  0  0  0  0  0  0  0  0
  -89.1897   30.6464   -2.0616 C   0  0  0  0  0  0  0  0  0  0  0  0
  -89.8400   30.2257   -3.2016 C   0  0  0  0  0  0  0  0  0  0  0  0
  -89.3430   30.5720   -4.3822 F   0  0  0  0  0  0  0  0  0  0  0  0
  -90.9897   29.4570   -3.1583 C   0  0  0  0  0  0  0  0  0  0  0  0
  -91.4969   29.1039   -1.9642 N   0  0  0  0  0  0  0  0  0  0  0  0
  -90.9270   29.4708   -0.8047 C   0  0  0  0  0  0  0  0  0  0  0  0
  -89.7767   30.2401   -0.8668 C   0  0  0  0  0  0  0  0  0  0  0  0
  -89.2307   30.5921    0.3270 F   0  0  0  0  0  0  0  0  0  0  0  0
  -91.4866   29.0820    0.3812 O   0  0  0  0  0  0  0  0  0  0  0  0
  -91.3552   27.8551    1.0279 C   0  0  0  0  0  0  0  0  0  0  0  0
  -90.0596   27.1531    0.8132 C   0  0  0  0  0  0  0  0  0  0  0  0
  -90.2349   25.7657    0.4193 N   0  0  0  0  0  0  0  0  0  0  0  0
  -89.4797   25.1422    0.7273 H   0  0  0  0  0  0  0  0  0  0  0  0
  -90.5701   25.6099   -0.9660 C   0  0  0  0  0  0  0  0  0  0  0  0
  -89.8223   24.4763   -1.6224 C   0  0  0  0  0  0  0  0  0  0  0  0
  -90.1761   23.1266   -1.0707 C   0  0  0  0  0  0  0  0  0  0  0  0
  -89.1520   22.5326   -0.3678 F   0  0  0  0  0  0  0  0  0  0  0  0
  -89.2572   33.3579   -2.7403 C   0  0  0  0  0  0  0  0  0  0  0  0
  -89.4070   34.1845   -3.9252 C   0  0  0  0  0  0  0  0  0  0  0  0
  -89.0781   35.5279   -3.7466 F   0  0  0  0  0  0  0  0  0  0  0  0
  -88.3380   33.8273   -4.8633 F   0  0  0  0  0  0  0  0  0  0  0  0
  -90.6020   34.1115   -4.7991 C   0  0  0  0  0  0  0  0  0  0  0  0
  -91.8200   33.8722   -4.2595 O   0  0  0  0  0  0  0  0  0  0  0  0
  -92.3003   34.6977   -4.0168 H   0  0  0  0  0  0  0  0  0  0  0  0
  1  2  1  0  0  0
  2  3  1  0  0  0
  3  4  1  0  0  0
  4  5  2  0  0  0
  5  6  1  0  0  0
  6  7  1  0  0  0
  7  8  2  0  0  0
  8  9  1  0  0  0
  9 10  2  0  0  0
 10 11  1  0  0  0
 11 12  2  0  0  0
  5 13  1  0  0  0
 13 16  1  0  0  0
 16 17  2  0  0  0
 17 18  1  0  0  0
 17 19  1  0  0  0
 19 20  2  0  0  0
 20 21  1  0  0  0
 21 24  1  0  0  0
 24 25  1  0  0  0
 25 26  1  0  0  0
 26 27  1  0  0  0
 27 29  1  0  0  0
 29 30  1  0  0  0
 30 31  1  0  0  0
 31 32  1  0  0  0
 21 22  2  0  0  0
 22 23  1  0  0  0
 13 14  1  0  0  0
 14 33  1  0  0  0
 33 34  1  0  0  0
 34 35  1  0  0  0
 34 36  1  0  0  0
 34 37  1  0  0  0
 37 38  1  0  0  0
 14  2  1  0  0  0
 12  4  1  0  0  0
 22 16  1  0  0  0
 12  7  1  0  0  0
  6 15  1  0  0  0
 27 28  1  0  0  0
 38 39  1  0  0  0
M  END
> <minimizedAffinity>
-7.16045

> <CNNscore>
0.1556792557

> <CNNaffinity>
6.5200853348

> <CNN_VS>
1.0150420666

> <CNNaffinity_variance>
0.3528164625

$$$$
[H]OC([H])([H])C(F)(F)C([H])([H])N1[C@]([H])(c2c(F)c([H])nc(OC([H])([H])C([H])([H])N([H])C([H])([H])C([H])([H])C([H])([H])F)c2F)c2c(c3c([H])c([H])c([H])c([H])c3n2[H])C([H])([H])[C@@]1([H])C([H])([H])[H]


 39 42  0  0  0  0  0  0  0  0999 V2000
  -85.1637   33.3167   -1.9735 C   0  0  0  0  0  0  0  0  0  0  0  0
  -86.5376   33.6522   -1.4588 C   0  0  0  0  0  0  0  0  0  0  0  0
  -86.4508   33.1985    0.0281 C   0  0  0  0  0  0  0  0  0  0  0  0
  -86.3986   31.7262   -0.0294 C   0  0  0  0  0  0  0  0  0  0  0  0
  -87.0258   31.0513   -1.0450 C   0  0  0  0  0  0  0  0  0  0  0  0
  -86.7910   29.7406   -0.8153 N   0  0  0  0  0  0  0  0  0  0  0  0
  -86.0535   29.5558    0.2852 C   0  0  0  0  0  0  0  0  0  0  0  0
  -85.5507   28.4479    0.9417 C   0  0  0  0  0  0  0  0  0  0  0  0
  -84.8036   28.5917    2.0888 C   0  0  0  0  0  0  0  0  0  0  0  0
  -84.5329   29.8568    2.6208 C   0  0  0  0  0  0  0  0  0  0  0  0
  -85.0465   30.9407    1.9456 C   0  0  0  0  0  0  0  0  0  0  0  0
  -85.7938   30.8099    0.7997 C   0  0  0  0  0  0  0  0  0  0  0  0
  -87.7917   31.7143   -2.1402 C   0  0  0  0  0  0  0  0  0  0  0  0
  -87.6434   33.1358   -2.1125 N   0  0  0  0  0  0  0  0  0  0  0  0
  -87.1351   28.9607   -1.4127 H   0  0  0  0  0  0  0  0  0  0  0  0
  -89.1202   31.1530   -2.3231 C   0  0  0  0  0  0  0  0  0  0  0  0
  -90.0188   31.0056   -1.2885 C   0  0  0  0  0  0  0  0  0  0  0  0
  -89.6560   31.3889   -0.0711 F   0  0  0  0  0  0  0  0  0  0  0  0
  -91.2825   30.4734   -1.4744 C   0  0  0  0  0  0  0  0  0  0  0  0
  -91.6542   30.0836   -2.7063 N   0  0  0  0  0  0  0  0  0  0  0  0
  -90.8413   30.1916   -3.7699 C   0  0  0  0  0  0  0  0  0  0  0  0
  -89.5800   30.7265   -3.5656 C   0  0  0  0  0  0  0  0  0  0  0  0
  -88.7869   30.8182   -4.6655 F   0  0  0  0  0  0  0  0  0  0  0  0
  -91.2729   29.7793   -5.0006 O   0  0  0  0  0  0  0  0  0  0  0  0
  -92.5721   29.8001   -5.5029 C   0  0  0  0  0  0  0  0  0  0  0  0
  -93.2430   28.4741   -5.5994 C   0  0  0  0  0  0  0  0  0  0  0  0
  -93.3267   27.7961   -4.3173 N   0  0  0  0  0  0  0  0  0  0  0  0
  -93.0650   28.3801   -3.5145 H   0  0  0  0  0  0  0  0  0  0  0  0
  -92.6908   26.5110   -4.3154 C   0  0  0  0  0  0  0  0  0  0  0  0
  -91.4365   26.4828   -3.4782 C   0  0  0  0  0  0  0  0  0  0  0  0
  -91.3765   25.3233   -2.5279 C   0  0  0  0  0  0  0  0  0  0  0  0
  -91.8209   24.1398   -3.0734 F   0  0  0  0  0  0  0  0  0  0  0  0
  -88.6093   33.8669   -2.7603 C   0  0  0  0  0  0  0  0  0  0  0  0
  -88.5661   34.4309   -4.0980 C   0  0  0  0  0  0  0  0  0  0  0  0
  -87.5431   33.9386   -4.9078 F   0  0  0  0  0  0  0  0  0  0  0  0
  -89.7068   33.8981   -4.8499 F   0  0  0  0  0  0  0  0  0  0  0  0
  -88.6997   35.8851   -4.3519 C   0  0  0  0  0  0  0  0  0  0  0  0
  -88.6462   36.7589   -3.3197 O   0  0  0  0  0  0  0  0  0  0  0  0
  -87.7330   37.0819   -3.1382 H   0  0  0  0  0  0  0  0  0  0  0  0
  1  2  1  0  0  0
  2  3  1  0  0  0
  3  4  1  0  0  0
  4  5  2  0  0  0
  5  6  1  0  0  0
  6  7  1  0  0  0
  7  8  2  0  0  0
  8  9  1  0  0  0
  9 10  2  0  0  0
 10 11  1  0  0  0
 11 12  2  0  0  0
  5 13  1  0  0  0
 13 16  1  0  0  0
 16 17  2  0  0  0
 17 18  1  0  0  0
 17 19  1  0  0  0
 19 20  2  0  0  0
 20 21  1  0  0  0
 21 24  1  0  0  0
 24 25  1  0  0  0
 25 26  1  0  0  0
 26 27  1  0  0  0
 27 29  1  0  0  0
 29 30  1  0  0  0
 30 31  1  0  0  0
 31 32  1  0  0  0
 21 22  2  0  0  0
 22 23  1  0  0  0
 13 14  1  0  0  0
 14 33  1  0  0  0
 33 34  1  0  0  0
 34 35  1  0  0  0
 34 36  1  0  0  0
 34 37  1  0  0  0
 37 38  1  0  0  0
 14  2  1  0  0  0
 12  4  1  0  0  0
 22 16  1  0  0  0
 12  7  1  0  0  0
  6 15  1  0  0  0
 27 28  1  0  0  0
 38 39  1  0  0  0
M  END
> <minimizedAffinity>
-7.17514

> <CNNscore>
0.1521626413

> <CNNaffinity>
6.3861188889

> <CNN_VS>
0.9717287421

> <CNNaffinity_variance>
0.4060714841

$$$$
[H]OC([H])([H])C(F)(F)C([H])([H])N1[C@]([H])(c2c(F)c([H])nc(OC([H])([H])C([H])([H])N([H])C([H])([H])C([H])([H])C([H])([H])F)c2F)c2c(c3c([H])c([H])c([H])c([H])c3n2[H])C([H])([H])[C@@]1([H])C([H])([H])[H]


 39 42  0  0  0  0  0  0  0  0999 V2000
  -88.1894   26.7839    2.8300 C   0  0  0  0  0  0  0  0  0  0  0  0
  -88.1519   26.3771    1.3814 C   0  0  0  0  0  0  0  0  0  0  0  0
  -86.6566   26.6081    1.0143 C   0  0  0  0  0  0  0  0  0  0  0  0
  -86.4894   28.0730    1.0182 C   0  0  0  0  0  0  0  0  0  0  0  0
  -87.5390   28.8895    0.6841 C   0  0  0  0  0  0  0  0  0  0  0  0
  -87.0693   30.1524    0.7863 N   0  0  0  0  0  0  0  0  0  0  0  0
  -85.7865   30.1738    1.1647 C   0  0  0  0  0  0  0  0  0  0  0  0
  -84.8631   31.1734    1.4082 C   0  0  0  0  0  0  0  0  0  0  0  0
  -83.5795   30.8628    1.7962 C   0  0  0  0  0  0  0  0  0  0  0  0
  -83.1743   29.5333    1.9547 C   0  0  0  0  0  0  0  0  0  0  0  0
  -84.1153   28.5602    1.7054 C   0  0  0  0  0  0  0  0  0  0  0  0
  -85.3996   28.8577    1.3173 C   0  0  0  0  0  0  0  0  0  0  0  0
  -88.8921   28.3944    0.2973 C   0  0  0  0  0  0  0  0  0  0  0  0
  -89.0217   26.9841    0.4916 N   0  0  0  0  0  0  0  0  0  0  0  0
  -87.6258   31.0116    0.5973 H   0  0  0  0  0  0  0  0  0  0  0  0
  -89.3756   28.9769   -0.9437 C   0  0  0  0  0  0  0  0  0  0  0  0
  -90.6832   29.3734   -1.1243 C   0  0  0  0  0  0  0  0  0  0  0  0
  -91.5404   29.2140   -0.1241 F   0  0  0  0  0  0  0  0  0  0  0  0
  -91.1320   29.9305   -2.3087 C   0  0  0  0  0  0  0  0  0  0  0  0
  -90.2669   30.0938   -3.3249 N   0  0  0  0  0  0  0  0  0  0  0  0
  -88.9759   29.7349   -3.2340 C   0  0  0  0  0  0  0  0  0  0  0  0
  -88.5437   29.1789   -2.0411 C   0  0  0  0  0  0  0  0  0  0  0  0
  -87.2318   28.8279   -1.9886 F   0  0  0  0  0  0  0  0  0  0  0  0
  -88.1403   29.9252   -4.3001 O   0  0  0  0  0  0  0  0  0  0  0  0
  -87.6407   31.1291   -4.7916 C   0  0  0  0  0  0  0  0  0  0  0  0
  -88.3344   32.3553   -4.3092 C   0  0  0  0  0  0  0  0  0  0  0  0
  -87.4670   33.2143   -3.5217 N   0  0  0  0  0  0  0  0  0  0  0  0
  -86.7405   33.6926   -4.0672 H   0  0  0  0  0  0  0  0  0  0  0  0
  -86.9625   32.5772   -2.3404 C   0  0  0  0  0  0  0  0  0  0  0  0
  -87.6573   33.0430   -1.0853 C   0  0  0  0  0  0  0  0  0  0  0  0
  -89.1428   32.8336   -1.1101 C   0  0  0  0  0  0  0  0  0  0  0  0
  -89.6293   32.2015    0.0121 F   0  0  0  0  0  0  0  0  0  0  0  0
  -90.0197   26.3562   -0.2131 C   0  0  0  0  0  0  0  0  0  0  0  0
  -89.8914   25.4118   -1.3091 C   0  0  0  0  0  0  0  0  0  0  0  0
  -90.6462   25.7218   -2.4399 F   0  0  0  0  0  0  0  0  0  0  0  0
  -88.5565   25.5765   -1.8933 F   0  0  0  0  0  0  0  0  0  0  0  0
  -89.9440   23.9447   -1.1041 C   0  0  0  0  0  0  0  0  0  0  0  0
  -89.0544   23.3455   -0.2786 O   0  0  0  0  0  0  0  0  0  0  0  0
  -89.3771   23.2812    0.6503 H   0  0  0  0  0  0  0  0  0  0  0  0
  1  2  1  0  0  0
  2  3  1  0  0  0
  3  4  1  0  0  0
  4  5  2  0  0  0
  5  6  1  0  0  0
  6  7  1  0  0  0
  7  8  2  0  0  0
  8  9  1  0  0  0
  9 10  2  0  0  0
 10 11  1  0  0  0
 11 12  2  0  0  0
  5 13  1  0  0  0
 13 16  1  0  0  0
 16 17  2  0  0  0
 17 18  1  0  0  0
 17 19  1  0  0  0
 19 20  2  0  0  0
 20 21  1  0  0  0
 21 24  1  0  0  0
 24 25  1  0  0  0
 25 26  1  0  0  0
 26 27  1  0  0  0
 27 29  1  0  0  0
 29 30  1  0  0  0
 30 31  1  0  0  0
 31 32  1  0  0  0
 21 22  2  0  0  0
 22 23  1  0  0  0
 13 14  1  0  0  0
 14 33  1  0  0  0
 33 34  1  0  0  0
 34 35  1  0  0  0
 34 36  1  0  0  0
 34 37  1  0  0  0
 37 38  1  0  0  0
 14  2  1  0  0  0
 12  4  1  0  0  0
 22 16  1  0  0  0
 12  7  1  0  0  0
  6 15  1  0  0  0
 27 28  1  0  0  0
 38 39  1  0  0  0
M  END
> <minimizedAffinity>
-8.22024

> <CNNscore>
0.1481430233

> <CNNaffinity>
6.5806031227

> <CNN_VS>
0.9748704433

> <CNNaffinity_variance>
0.9491801262

$$$$
[H]OC([H])([H])C(F)(F)C([H])([H])N1[C@]([H])(c2c(F)c([H])nc(OC([H])([H])C([H])([H])N([H])C([H])([H])C([H])([H])C([H])([H])F)c2F)c2c(c3c([H])c([H])c([H])c([H])c3n2[H])C([H])([H])[C@@]1([H])C([H])([H])[H]


 39 42  0  0  0  0  0  0  0  0999 V2000
  -88.7009   27.7397    2.9446 C   0  0  0  0  0  0  0  0  0  0  0  0
  -88.7211   27.1061    1.5796 C   0  0  0  0  0  0  0  0  0  0  0  0
  -87.2492   26.6241    1.4198 C   0  0  0  0  0  0  0  0  0  0  0  0
  -86.4615   27.8613    1.2699 C   0  0  0  0  0  0  0  0  0  0  0  0
  -87.0177   28.9681    0.6820 C   0  0  0  0  0  0  0  0  0  0  0  0
  -86.0553   29.9164    0.6995 N   0  0  0  0  0  0  0  0  0  0  0  0
  -84.9288   29.4674    1.2639 C   0  0  0  0  0  0  0  0  0  0  0  0
  -83.6865   30.0168    1.5215 C   0  0  0  0  0  0  0  0  0  0  0  0
  -82.7048   29.2731    2.1362 C   0  0  0  0  0  0  0  0  0  0  0  0
  -82.9346   27.9466    2.5161 C   0  0  0  0  0  0  0  0  0  0  0  0
  -84.1805   27.4271    2.2469 C   0  0  0  0  0  0  0  0  0  0  0  0
  -85.1686   28.1595    1.6337 C   0  0  0  0  0  0  0  0  0  0  0  0
  -88.4129   29.0225    0.1565 C   0  0  0  0  0  0  0  0  0  0  0  0
  -89.1600   27.8532    0.4998 N   0  0  0  0  0  0  0  0  0  0  0  0
  -86.1635   30.8813    0.3239 H   0  0  0  0  0  0  0  0  0  0  0  0
  -88.4864   29.5248   -1.2056 C   0  0  0  0  0  0  0  0  0  0  0  0
  -87.8092   28.9422   -2.2552 C   0  0  0  0  0  0  0  0  0  0  0  0
  -87.0540   27.8784   -2.0130 F   0  0  0  0  0  0  0  0  0  0  0  0
  -87.8893   29.4262   -3.5490 C   0  0  0  0  0  0  0  0  0  0  0  0
  -88.6533   30.5040   -3.7989 N   0  0  0  0  0  0  0  0  0  0  0  0
  -89.3461   31.1326   -2.8353 C   0  0  0  0  0  0  0  0  0  0  0  0
  -89.2545   30.6345   -1.5460 C   0  0  0  0  0  0  0  0  0  0  0  0
  -89.9687   31.2982   -0.5992 F   0  0  0  0  0  0  0  0  0  0  0  0
  -90.1081   32.2248   -3.1475 O   0  0  0  0  0  0  0  0  0  0  0  0
  -89.6750   33.4699   -3.5978 C   0  0  0  0  0  0  0  0  0  0  0  0
  -88.7917   34.2183   -2.6611 C   0  0  0  0  0  0  0  0  0  0  0  0
  -87.4617   34.4376   -3.2029 N   0  0  0  0  0  0  0  0  0  0  0  0
  -87.4435   34.6193   -4.2132 H   0  0  0  0  0  0  0  0  0  0  0  0
  -86.5121   33.4469   -2.7873 C   0  0  0  0  0  0  0  0  0  0  0  0
  -86.5574   33.1830   -1.3029 C   0  0  0  0  0  0  0  0  0  0  0  0
  -85.2165   33.2777   -0.6365 C   0  0  0  0  0  0  0  0  0  0  0  0
  -84.1602   33.2698   -1.5196 F   0  0  0  0  0  0  0  0  0  0  0  0
  -90.2679   27.5851   -0.2670 C   0  0  0  0  0  0  0  0  0  0  0  0
  -90.6474   26.3311   -0.8938 C   0  0  0  0  0  0  0  0  0  0  0  0
  -91.1804   25.3801   -0.0240 F   0  0  0  0  0  0  0  0  0  0  0  0
  -91.8464   26.5748   -1.7021 F   0  0  0  0  0  0  0  0  0  0  0  0
  -89.7738   25.6324   -1.8662 C   0  0  0  0  0  0  0  0  0  0  0  0
  -88.4982   25.3278   -1.5313 O   0  0  0  0  0  0  0  0  0  0  0  0
  -88.4122   24.4351   -1.1229 H   0  0  0  0  0  0  0  0  0  0  0  0
  1  2  1  0  0  0
  2  3  1  0  0  0
  3  4  1  0  0  0
  4  5  2  0  0  0
  5  6  1  0  0  0
  6  7  1  0  0  0
  7  8  2  0  0  0
  8  9  1  0  0  0
  9 10  2  0  0  0
 10 11  1  0  0  0
 11 12  2  0  0  0
  5 13  1  0  0  0
 13 16  1  0  0  0
 16 17  2  0  0  0
 17 18  1  0  0  0
 17 19  1  0  0  0
 19 20  2  0  0  0
 20 21  1  0  0  0
 21 24  1  0  0  0
 24 25  1  0  0  0
 25 26  1  0  0  0
 26 27  1  0  0  0
 27 29  1  0  0  0
 29 30  1  0  0  0
 30 31  1  0  0  0
 31 32  1  0  0  0
 21 22  2  0  0  0
 22 23  1  0  0  0
 13 14  1  0  0  0
 14 33  1  0  0  0
 33 34  1  0  0  0
 34 35  1  0  0  0
 34 36  1  0  0  0
 34 37  1  0  0  0
 37 38  1  0  0  0
 14  2  1  0  0  0
 12  4  1  0  0  0
 22 16  1  0  0  0
 12  7  1  0  0  0
  6 15  1  0  0  0
 27 28  1  0  0  0
 38 39  1  0  0  0
M  END
> <minimizedAffinity>
-8.81134

> <CNNscore>
0.1417687088

> <CNNaffinity>
6.5700044632

> <CNN_VS>
0.9314210415

> <CNNaffinity_variance>
0.8501204252

$$$$
[H]c1c([H])c(C([H])(C(=O)N([H])C([H])([H])c2c([H])c([H])c(C(F)(F)F)c([H])c2C2([H])C([H])([H])C([H])([H])C([H])([H])C([H])([H])C2([H])[H])C([H])([H])[H])c([H])c(F)c1N([H])S(=O)(=O)C([H])([H])[H]


 36 38  0  0  0  0  0  0  0  0999 V2000
  -88.0899   27.3175    0.2463 C   0  0  0  0  0  0  0  0  0  0  0  0
  -88.1442   26.3609    0.7757 O   0  0  0  0  0  0  0  0  0  0  0  0
  -88.6799   28.4979   -0.2215 N   0  0  0  0  0  0  0  0  0  0  0  0
  -89.8800   28.1499    0.4170 H   0  0  0  0  0  0  0  0  0  0  0  0
  -85.9423   26.4926   -0.0218 C   0  0  0  0  0  0  0  0  0  0  0  0
  -86.6313   27.8322   -0.3735 C   0  0  0  0  0  0  0  0  0  0  0  0
  -86.1162   28.8718    0.4432 C   0  0  0  0  0  0  0  0  0  0  0  0
  -86.3139   28.9565    1.7620 C   0  0  0  0  0  0  0  0  0  0  0  0
  -85.7337   29.8481    2.5581 C   0  0  0  0  0  0  0  0  0  0  0  0
  -84.8395   30.8263    1.9588 C   0  0  0  0  0  0  0  0  0  0  0  0
  -84.6606   30.7525    0.6651 C   0  0  0  0  0  0  0  0  0  0  0  0
  -83.8965   31.7719    0.0781 F   0  0  0  0  0  0  0  0  0  0  0  0
  -85.2238   29.8252   -0.1855 C   0  0  0  0  0  0  0  0  0  0  0  0
  -84.1318   31.4810    2.9854 N   0  0  0  0  0  0  0  0  0  0  0  0
  -84.5047   31.0952    3.9889 H   0  0  0  0  0  0  0  0  0  0  0  0
  -82.8734   32.5405    3.0546 S   0  0  0  0  0  0  0  0  0  0  0  0
  -82.4968   32.9785    4.7548 C   0  0  0  0  0  0  0  0  0  0  0  0
  -83.0588   33.6858    2.1396 O   0  0  0  0  0  0  0  0  0  0  0  0
  -81.6047   31.7499    2.5950 O   0  0  0  0  0  0  0  0  0  0  0  0
  -89.2136   29.5494   -0.6362 C   0  0  0  0  0  0  0  0  0  0  0  0
  -89.7250   29.9437   -1.9739 C   0  0  0  0  0  0  0  0  0  0  0  0
  -89.9446   31.2034   -2.4668 C   0  0  0  0  0  0  0  0  0  0  0  0
  -90.8659   31.4437   -3.5343 C   0  0  0  0  0  0  0  0  0  0  0  0
  -91.4946   30.3931   -4.0234 C   0  0  0  0  0  0  0  0  0  0  0  0
  -91.3004   29.1076   -3.5358 C   0  0  0  0  0  0  0  0  0  0  0  0
  -90.4513   28.8731   -2.5566 C   0  0  0  0  0  0  0  0  0  0  0  0
  -89.9396   27.5608   -2.0417 C   0  0  0  0  0  0  0  0  0  0  0  0
  -89.0007   26.9278   -3.0923 C   0  0  0  0  0  0  0  0  0  0  0  0
  -89.6030   26.5214   -4.3580 C   0  0  0  0  0  0  0  0  0  0  0  0
  -90.7839   25.6047   -4.1451 C   0  0  0  0  0  0  0  0  0  0  0  0
  -91.0183   25.3490   -2.6778 C   0  0  0  0  0  0  0  0  0  0  0  0
  -91.0597   26.5647   -1.8113 C   0  0  0  0  0  0  0  0  0  0  0  0
  -92.7336   30.5821   -4.9302 C   0  0  0  0  0  0  0  0  0  0  0  0
  -93.1044   29.5694   -5.6327 F   0  0  0  0  0  0  0  0  0  0  0  0
  -92.5114   31.7360   -5.6481 F   0  0  0  0  0  0  0  0  0  0  0  0
  -93.7787   30.9474   -4.0254 F   0  0  0  0  0  0  0  0  0  0  0  0
  5  6  1  0  0  0
  6  1  1  0  0  0
  1  2  2  0  0  0
  1  3  1  0  0  0
  3 20  1  0  0  0
 20 21  1  0  0  0
 21 22  2  0  0  0
 22 23  1  0  0  0
 23 24  2  0  0  0
 24 33  1  0  0  0
 33 34  1  0  0  0
 33 35  1  0  0  0
 33 36  1  0  0  0
 24 25  1  0  0  0
 25 26  2  0  0  0
 26 27  1  0  0  0
 27 28  1  0  0  0
 28 29  1  0  0  0
 29 30  1  0  0  0
 30 31  1  0  0  0
 31 32  1  0  0  0
  6  7  1  0  0  0
  7  8  2  0  0  0
  8  9  1  0  0  0
  9 10  2  0  0  0
 10 14  1  0  0  0
 14 16  1  0  0  0
 16 17  1  0  0  0
 16 18  2  0  0  0
 16 19  2  0  0  0
 10 11  1  0  0  0
 11 12  1  0  0  0
 11 13  2  0  0  0
 26 21  1  0  0  0
 32 27  1  0  0  0
 13  7  1  0  0  0
  3  4  1  0  0  0
 14 15  1  0  0  0
M  END
> <minimizedAffinity>
17.67686

> <CNNscore>
0.3985637724

> <CNNaffinity>
6.5385322571

> <CNN_VS>
2.6060221195

> <CNNaffinity_variance>
2.5679402351

$$$$
[H]c1c([H])c(C([H])(C(=O)N([H])C([H])([H])c2c([H])c([H])c(C(F)(F)F)c([H])c2C2([H])C([H])([H])C([H])([H])C([H])([H])C([H])([H])C2([H])[H])C([H])([H])[H])c([H])c(F)c1N([H])S(=O)(=O)C([H])([H])[H]


 36 38  0  0  0  0  0  0  0  0999 V2000
  -85.0945   30.2990    2.4824 C   0  0  0  0  0  0  0  0  0  0  0  0
  -84.7711   31.1285    3.1193 O   0  0  0  0  0  0  0  0  0  0  0  0
  -85.8307   29.1269    2.2715 N   0  0  0  0  0  0  0  0  0  0  0  0
  -86.3889   29.2480    3.5532 H   0  0  0  0  0  0  0  0  0  0  0  0
  -83.1037   30.4534    1.3090 C   0  0  0  0  0  0  0  0  0  0  0  0
  -84.5784   30.2283    0.8997 C   0  0  0  0  0  0  0  0  0  0  0  0
  -85.0653   31.3610    0.1973 C   0  0  0  0  0  0  0  0  0  0  0  0
  -84.2840   32.3019   -0.3408 C   0  0  0  0  0  0  0  0  0  0  0  0
  -84.7166   33.2957   -1.1092 C   0  0  0  0  0  0  0  0  0  0  0  0
  -86.1447   33.3945   -1.3667 C   0  0  0  0  0  0  0  0  0  0  0  0
  -86.9099   32.4823   -0.8248 C   0  0  0  0  0  0  0  0  0  0  0  0
  -88.2939   32.6541   -0.9750 F   0  0  0  0  0  0  0  0  0  0  0  0
  -86.4926   31.4237   -0.0465 C   0  0  0  0  0  0  0  0  0  0  0  0
  -86.3544   34.3249   -2.4029 N   0  0  0  0  0  0  0  0  0  0  0  0
  -85.5039   35.0810   -2.3918 H   0  0  0  0  0  0  0  0  0  0  0  0
  -87.4358   34.4899   -3.6335 S   0  0  0  0  0  0  0  0  0  0  0  0
  -87.8704   32.8904   -4.3240 C   0  0  0  0  0  0  0  0  0  0  0  0
  -87.0057   35.5019   -4.6206 O   0  0  0  0  0  0  0  0  0  0  0  0
  -88.7720   34.9792   -2.9845 O   0  0  0  0  0  0  0  0  0  0  0  0
  -86.4904   28.0808    2.0906 C   0  0  0  0  0  0  0  0  0  0  0  0
  -87.5658   27.7385    1.1248 C   0  0  0  0  0  0  0  0  0  0  0  0
  -87.5747   27.9006   -0.2360 C   0  0  0  0  0  0  0  0  0  0  0  0
  -88.7960   27.9962   -0.9744 C   0  0  0  0  0  0  0  0  0  0  0  0
  -89.9155   27.9200   -0.2823 C   0  0  0  0  0  0  0  0  0  0  0  0
  -89.9362   27.7679    1.0977 C   0  0  0  0  0  0  0  0  0  0  0  0
  -88.8185   27.6736    1.7880 C   0  0  0  0  0  0  0  0  0  0  0  0
  -88.6231   27.2927    3.2254 C   0  0  0  0  0  0  0  0  0  0  0  0
  -88.5875   25.7534    3.3484 C   0  0  0  0  0  0  0  0  0  0  0  0
  -89.8175   25.0358    3.0286 C   0  0  0  0  0  0  0  0  0  0  0  0
  -90.9915   25.5607    3.8201 C   0  0  0  0  0  0  0  0  0  0  0  0
  -90.5737   26.6828    4.7364 C   0  0  0  0  0  0  0  0  0  0  0  0
  -89.7676   27.7671    4.0999 C   0  0  0  0  0  0  0  0  0  0  0  0
  -91.2573   28.3414   -0.9267 C   0  0  0  0  0  0  0  0  0  0  0  0
  -91.2189   28.7414   -2.1494 F   0  0  0  0  0  0  0  0  0  0  0  0
  -91.8460   29.2216   -0.0465 F   0  0  0  0  0  0  0  0  0  0  0  0
  -92.0761   27.1732   -0.8291 F   0  0  0  0  0  0  0  0  0  0  0  0
  5  6  1  0  0  0
  6  1  1  0  0  0
  1  2  2  0  0  0
  1  3  1  0  0  0
  3 20  1  0  0  0
 20 21  1  0  0  0
 21 22  2  0  0  0
 22 23  1  0  0  0
 23 24  2  0  0  0
 24 33  1  0  0  0
 33 34  1  0  0  0
 33 35  1  0  0  0
 33 36  1  0  0  0
 24 25  1  0  0  0
 25 26  2  0  0  0
 26 27  1  0  0  0
 27 28  1  0  0  0
 28 29  1  0  0  0
 29 30  1  0  0  0
 30 31  1  0  0  0
 31 32  1  0  0  0
  6  7  1  0  0  0
  7  8  2  0  0  0
  8  9  1  0  0  0
  9 10  2  0  0  0
 10 14  1  0  0  0
 14 16  1  0  0  0
 16 17  1  0  0  0
 16 18  2  0  0  0
 16 19  2  0  0  0
 10 11  1  0  0  0
 11 12  1  0  0  0
 11 13  2  0  0  0
 26 21  1  0  0  0
 32 27  1  0  0  0
 13  7  1  0  0  0
  3  4  1  0  0  0
 14 15  1  0  0  0
M  END
> <minimizedAffinity>
-9.07107

> <CNNscore>
0.3743222654

> <CNNaffinity>
7.1522102356

> <CNN_VS>
2.6772315502

> <CNNaffinity_variance>
0.1456088722

$$$$
[H]c1c([H])c(C([H])(C(=O)N([H])C([H])([H])c2c([H])c([H])c(C(F)(F)F)c([H])c2C2([H])C([H])([H])C([H])([H])C([H])([H])C([H])([H])C2([H])[H])C([H])([H])[H])c([H])c(F)c1N([H])S(=O)(=O)C([H])([H])[H]


 36 38  0  0  0  0  0  0  0  0999 V2000
  -88.7777   31.1936   -4.2639 C   0  0  0  0  0  0  0  0  0  0  0  0
  -88.5938   31.0387   -5.3318 O   0  0  0  0  0  0  0  0  0  0  0  0
  -88.6160   30.8240   -2.9232 N   0  0  0  0  0  0  0  0  0  0  0  0
  -87.7511   29.7903   -3.3135 H   0  0  0  0  0  0  0  0  0  0  0  0
  -90.6987   32.3222   -4.8970 C   0  0  0  0  0  0  0  0  0  0  0  0
  -89.6617   32.5153   -3.7655 C   0  0  0  0  0  0  0  0  0  0  0  0
  -88.9082   33.6957   -3.9941 C   0  0  0  0  0  0  0  0  0  0  0  0
  -88.1079   34.2615   -3.0860 C   0  0  0  0  0  0  0  0  0  0  0  0
  -87.2999   35.2887   -3.3252 C   0  0  0  0  0  0  0  0  0  0  0  0
  -87.2986   35.8666   -4.6600 C   0  0  0  0  0  0  0  0  0  0  0  0
  -88.0956   35.3221   -5.5430 C   0  0  0  0  0  0  0  0  0  0  0  0
  -88.1804   35.9600   -6.7894 F   0  0  0  0  0  0  0  0  0  0  0  0
  -88.9253   34.2405   -5.3370 C   0  0  0  0  0  0  0  0  0  0  0  0
  -86.1980   36.7375   -4.7750 N   0  0  0  0  0  0  0  0  0  0  0  0
  -85.2857   36.2350   -4.3167 H   0  0  0  0  0  0  0  0  0  0  0  0
  -85.9228   38.1962   -5.4875 S   0  0  0  0  0  0  0  0  0  0  0  0
  -84.2724   38.7936   -5.1085 C   0  0  0  0  0  0  0  0  0  0  0  0
  -87.0126   39.1587   -5.2247 O   0  0  0  0  0  0  0  0  0  0  0  0
  -85.8672   37.9316   -7.0279 O   0  0  0  0  0  0  0  0  0  0  0  0
  -88.4674   30.4878   -1.7285 C   0  0  0  0  0  0  0  0  0  0  0  0
  -87.4037   30.7887   -0.7363 C   0  0  0  0  0  0  0  0  0  0  0  0
  -86.6871   31.9460   -0.5771 C   0  0  0  0  0  0  0  0  0  0  0  0
  -85.4030   31.9553    0.0529 C   0  0  0  0  0  0  0  0  0  0  0  0
  -84.9407   30.7950    0.4751 C   0  0  0  0  0  0  0  0  0  0  0  0
  -85.6395   29.6057    0.3165 C   0  0  0  0  0  0  0  0  0  0  0  0
  -86.8248   29.5851   -0.2575 C   0  0  0  0  0  0  0  0  0  0  0  0
  -87.8227   28.4678   -0.3283 C   0  0  0  0  0  0  0  0  0  0  0  0
  -88.4859   28.2832    1.0544 C   0  0  0  0  0  0  0  0  0  0  0  0
  -87.6278   27.8294    2.1442 C   0  0  0  0  0  0  0  0  0  0  0  0
  -86.8919   26.5611    1.7839 C   0  0  0  0  0  0  0  0  0  0  0  0
  -87.2493   26.0992    0.3938 C   0  0  0  0  0  0  0  0  0  0  0  0
  -87.1693   27.1429   -0.6715 C   0  0  0  0  0  0  0  0  0  0  0  0
  -83.4491   30.6459    0.8574 C   0  0  0  0  0  0  0  0  0  0  0  0
  -82.5823   30.8903   -0.0619 F   0  0  0  0  0  0  0  0  0  0  0  0
  -83.3279   29.4117    1.4558 F   0  0  0  0  0  0  0  0  0  0  0  0
  -83.2710   31.5617    1.9410 F   0  0  0  0  0  0  0  0  0  0  0  0
  5  6  1  0  0  0
  6  1  1  0  0  0
  1  2  2  0  0  0
  1  3  1  0  0  0
  3 20  1  0  0  0
 20 21  1  0  0  0
 21 22  2  0  0  0
 22 23  1  0  0  0
 23 24  2  0  0  0
 24 33  1  0  0  0
 33 34  1  0  0  0
 33 35  1  0  0  0
 33 36  1  0  0  0
 24 25  1  0  0  0
 25 26  2  0  0  0
 26 27  1  0  0  0
 27 28  1  0  0  0
 28 29  1  0  0  0
 29 30  1  0  0  0
 30 31  1  0  0  0
 31 32  1  0  0  0
  6  7  1  0  0  0
  7  8  2  0  0  0
  8  9  1  0  0  0
  9 10  2  0  0  0
 10 14  1  0  0  0
 14 16  1  0  0  0
 16 17  1  0  0  0
 16 18  2  0  0  0
 16 19  2  0  0  0
 10 11  1  0  0  0
 11 12  1  0  0  0
 11 13  2  0  0  0
 26 21  1  0  0  0
 32 27  1  0  0  0
 13  7  1  0  0  0
  3  4  1  0  0  0
 14 15  1  0  0  0
M  END
> <minimizedAffinity>
-9.81761

> <CNNscore>
0.3086313605

> <CNNaffinity>
6.5484304428

> <CNN_VS>
2.0210509300

> <CNNaffinity_variance>
0.5386053920

$$$$
[H]c1c([H])c(C([H])(C(=O)N([H])C([H])([H])c2c([H])c([H])c(C(F)(F)F)c([H])c2C2([H])C([H])([H])C([H])([H])C([H])([H])C([H])([H])C2([H])[H])C([H])([H])[H])c([H])c(F)c1N([H])S(=O)(=O)C([H])([H])[H]


 36 38  0  0  0  0  0  0  0  0999 V2000
  -90.6556   29.8051   -1.4731 C   0  0  0  0  0  0  0  0  0  0  0  0
  -91.7450   29.8637   -1.3827 O   0  0  0  0  0  0  0  0  0  0  0  0
  -89.3768   29.7556   -0.9054 N   0  0  0  0  0  0  0  0  0  0  0  0
  -89.9478   29.7251    0.3760 H   0  0  0  0  0  0  0  0  0  0  0  0
  -88.9580   28.5999   -2.4879 C   0  0  0  0  0  0  0  0  0  0  0  0
  -89.9624   29.6676   -2.9821 C   0  0  0  0  0  0  0  0  0  0  0  0
  -89.2775   30.8705   -3.2941 C   0  0  0  0  0  0  0  0  0  0  0  0
  -88.1518   30.9273   -4.0117 C   0  0  0  0  0  0  0  0  0  0  0  0
  -87.5712   32.0504   -4.4203 C   0  0  0  0  0  0  0  0  0  0  0  0
  -88.1789   33.3163   -4.0411 C   0  0  0  0  0  0  0  0  0  0  0  0
  -89.2715   33.2587   -3.3240 C   0  0  0  0  0  0  0  0  0  0  0  0
  -89.7820   34.4798   -2.8591 F   0  0  0  0  0  0  0  0  0  0  0  0
  -89.9149   32.1131   -2.9066 C   0  0  0  0  0  0  0  0  0  0  0  0
  -87.5818   34.3476   -4.7914 N   0  0  0  0  0  0  0  0  0  0  0  0
  -86.4961   34.0715   -4.9914 H   0  0  0  0  0  0  0  0  0  0  0  0
  -88.1045   35.7369   -5.5039 S   0  0  0  0  0  0  0  0  0  0  0  0
  -87.9282   37.1343   -4.3902 C   0  0  0  0  0  0  0  0  0  0  0  0
  -89.4442   35.5830   -6.1079 O   0  0  0  0  0  0  0  0  0  0  0  0
  -87.0876   36.0557   -6.6486 O   0  0  0  0  0  0  0  0  0  0  0  0
  -88.2382   29.7120   -0.3915 C   0  0  0  0  0  0  0  0  0  0  0  0
  -87.2558   30.7759   -0.0605 C   0  0  0  0  0  0  0  0  0  0  0  0
  -87.0964   32.0037   -0.6480 C   0  0  0  0  0  0  0  0  0  0  0  0
  -85.8556   32.7126   -0.5853 C   0  0  0  0  0  0  0  0  0  0  0  0
  -84.8704   32.1277    0.0670 C   0  0  0  0  0  0  0  0  0  0  0  0
  -85.0000   30.8796    0.6614 C   0  0  0  0  0  0  0  0  0  0  0  0
  -86.1388   30.2194    0.6146 C   0  0  0  0  0  0  0  0  0  0  0  0
  -86.5488   28.9857    1.3622 C   0  0  0  0  0  0  0  0  0  0  0  0
  -86.2833   29.1872    2.8704 C   0  0  0  0  0  0  0  0  0  0  0  0
  -84.8903   29.3210    3.2847 C   0  0  0  0  0  0  0  0  0  0  0  0
  -84.0485   28.1683    2.7917 C   0  0  0  0  0  0  0  0  0  0  0  0
  -84.8783   27.1825    2.0089 C   0  0  0  0  0  0  0  0  0  0  0  0
  -85.7420   27.7721    0.9426 C   0  0  0  0  0  0  0  0  0  0  0  0
  -83.4205   32.6437   -0.0906 C   0  0  0  0  0  0  0  0  0  0  0  0
  -83.2720   33.8674   -0.4608 F   0  0  0  0  0  0  0  0  0  0  0  0
  -82.7664   31.7177   -0.8722 F   0  0  0  0  0  0  0  0  0  0  0  0
  -82.8395   32.4595    1.2029 F   0  0  0  0  0  0  0  0  0  0  0  0
  5  6  1  0  0  0
  6  1  1  0  0  0
  1  2  2  0  0  0
  1  3  1  0  0  0
  3 20  1  0  0  0
 20 21  1  0  0  0
 21 22  2  0  0  0
 22 23  1  0  0  0
 23 24  2  0  0  0
 24 33  1  0  0  0
 33 34  1  0  0  0
 33 35  1  0  0  0
 33 36  1  0  0  0
 24 25  1  0  0  0
 25 26  2  0  0  0
 26 27  1  0  0  0
 27 28  1  0  0  0
 28 29  1  0  0  0
 29 30  1  0  0  0
 30 31  1  0  0  0
 31 32  1  0  0  0
  6  7  1  0  0  0
  7  8  2  0  0  0
  8  9  1  0  0  0
  9 10  2  0  0  0
 10 14  1  0  0  0
 14 16  1  0  0  0
 16 17  1  0  0  0
 16 18  2  0  0  0
 16 19  2  0  0  0
 10 11  1  0  0  0
 11 12  1  0  0  0
 11 13  2  0  0  0
 26 21  1  0  0  0
 32 27  1  0  0  0
 13  7  1  0  0  0
  3  4  1  0  0  0
 14 15  1  0  0  0
M  END
> <minimizedAffinity>
-9.34604

> <CNNscore>
0.2201969922

> <CNNaffinity>
6.8411536217

> <CNN_VS>
1.5064014196

> <CNNaffinity_variance>
0.2876223028

$$$$
[H]c1c([H])c(C([H])(C(=O)N([H])C([H])([H])c2c([H])c([H])c(C(F)(F)F)c([H])c2C2([H])C([H])([H])C([H])([H])C([H])([H])C([H])([H])C2([H])[H])C([H])([H])[H])c([H])c(F)c1N([H])S(=O)(=O)C([H])([H])[H]


 36 38  0  0  0  0  0  0  0  0999 V2000
  -90.4761   30.2570   -1.7908 C   0  0  0  0  0  0  0  0  0  0  0  0
  -90.5432   31.3252   -2.0204 O   0  0  0  0  0  0  0  0  0  0  0  0
  -90.9822   29.0936   -1.1986 N   0  0  0  0  0  0  0  0  0  0  0  0
  -92.1340   29.7941   -0.8091 H   0  0  0  0  0  0  0  0  0  0  0  0
  -90.1224   28.1734   -2.7384 C   0  0  0  0  0  0  0  0  0  0  0  0
  -89.2014   29.3662   -2.3892 C   0  0  0  0  0  0  0  0  0  0  0  0
  -88.3347   29.0139   -1.3224 C   0  0  0  0  0  0  0  0  0  0  0  0
  -88.0518   27.7562   -0.9708 C   0  0  0  0  0  0  0  0  0  0  0  0
  -87.1462   27.4104   -0.0622 C   0  0  0  0  0  0  0  0  0  0  0  0
  -86.4247   28.4685    0.6273 C   0  0  0  0  0  0  0  0  0  0  0  0
  -86.7154   29.6996    0.2939 C   0  0  0  0  0  0  0  0  0  0  0  0
  -86.1070   30.7142    1.0477 F   0  0  0  0  0  0  0  0  0  0  0  0
  -87.6277   30.0930   -0.6619 C   0  0  0  0  0  0  0  0  0  0  0  0
  -85.3434   27.8979    1.3260 N   0  0  0  0  0  0  0  0  0  0  0  0
  -85.1742   26.8420    0.9370 H   0  0  0  0  0  0  0  0  0  0  0  0
  -84.2537   28.4273    2.4412 S   0  0  0  0  0  0  0  0  0  0  0  0
  -83.1691   29.6729    1.7368 C   0  0  0  0  0  0  0  0  0  0  0  0
  -83.5657   27.3104    3.1211 O   0  0  0  0  0  0  0  0  0  0  0  0
  -85.0696   29.2220    3.5131 O   0  0  0  0  0  0  0  0  0  0  0  0
  -91.4401   28.0590   -0.6671 C   0  0  0  0  0  0  0  0  0  0  0  0
  -91.3389   27.5234    0.7147 C   0  0  0  0  0  0  0  0  0  0  0  0
  -91.0983   28.2047    1.8791 C   0  0  0  0  0  0  0  0  0  0  0  0
  -90.5507   27.5566    3.0307 C   0  0  0  0  0  0  0  0  0  0  0  0
  -90.2888   26.2694    2.9189 C   0  0  0  0  0  0  0  0  0  0  0  0
  -90.5114   25.5568    1.7482 C   0  0  0  0  0  0  0  0  0  0  0  0
  -91.0197   26.1412    0.6828 C   0  0  0  0  0  0  0  0  0  0  0  0
  -91.5335   25.5211   -0.5823 C   0  0  0  0  0  0  0  0  0  0  0  0
  -92.8553   24.7775   -0.2896 C   0  0  0  0  0  0  0  0  0  0  0  0
  -92.7790   23.6133    0.5872 C   0  0  0  0  0  0  0  0  0  0  0  0
  -91.7558   22.6148    0.1011 C   0  0  0  0  0  0  0  0  0  0  0  0
  -91.0924   23.0874   -1.1677 C   0  0  0  0  0  0  0  0  0  0  0  0
  -90.5737   24.4877   -1.1396 C   0  0  0  0  0  0  0  0  0  0  0  0
  -89.4006   25.5633    3.9705 C   0  0  0  0  0  0  0  0  0  0  0  0
  -89.4771   25.9900    5.1823 F   0  0  0  0  0  0  0  0  0  0  0  0
  -88.1286   25.5378    3.4436 F   0  0  0  0  0  0  0  0  0  0  0  0
  -89.8123   24.1950    3.9163 F   0  0  0  0  0  0  0  0  0  0  0  0
  5  6  1  0  0  0
  6  1  1  0  0  0
  1  2  2  0  0  0
  1  3  1  0  0  0
  3 20  1  0  0  0
 20 21  1  0  0  0
 21 22  2  0  0  0
 22 23  1  0  0  0
 23 24  2  0  0  0
 24 33  1  0  0  0
 33 34  1  0  0  0
 33 35  1  0  0  0
 33 36  1  0  0  0
 24 25  1  0  0  0
 25 26  2  0  0  0
 26 27  1  0  0  0
 27 28  1  0  0  0
 28 29  1  0  0  0
 29 30  1  0  0  0
 30 31  1  0  0  0
 31 32  1  0  0  0
  6  7  1  0  0  0
  7  8  2  0  0  0
  8  9  1  0  0  0
  9 10  2  0  0  0
 10 14  1  0  0  0
 14 16  1  0  0  0
 16 17  1  0  0  0
 16 18  2  0  0  0
 16 19  2  0  0  0
 10 11  1  0  0  0
 11 12  1  0  0  0
 11 13  2  0  0  0
 26 21  1  0  0  0
 32 27  1  0  0  0
 13  7  1  0  0  0
  3  4  1  0  0  0
 14 15  1  0  0  0
M  END
> <minimizedAffinity>
-7.89626

> <CNNscore>
0.2152292728

> <CNNaffinity>
6.6742415428

> <CNN_VS>
1.4364922047

> <CNNaffinity_variance>
0.4285167754

$$$$
[H]c1c([H])c(C([H])(C(=O)N([H])C([H])([H])c2c([H])c([H])c(C(F)(F)F)c([H])c2C2([H])C([H])([H])C([H])([H])C([H])([H])C([H])([H])C2([H])[H])C([H])([H])[H])c([H])c(F)c1N([H])S(=O)(=O)C([H])([H])[H]


 36 38  0  0  0  0  0  0  0  0999 V2000
  -88.3131   30.0009   -3.1925 C   0  0  0  0  0  0  0  0  0  0  0  0
  -88.7066   30.2944   -4.1710 O   0  0  0  0  0  0  0  0  0  0  0  0
  -87.5948   29.1250   -2.3697 N   0  0  0  0  0  0  0  0  0  0  0  0
  -87.2498   28.3558   -3.4914 H   0  0  0  0  0  0  0  0  0  0  0  0
  -90.1017   30.8455   -1.9875 C   0  0  0  0  0  0  0  0  0  0  0  0
  -88.5656   30.9894   -1.8750 C   0  0  0  0  0  0  0  0  0  0  0  0
  -88.1771   32.3142   -2.2024 C   0  0  0  0  0  0  0  0  0  0  0  0
  -86.9079   32.7226   -2.2916 C   0  0  0  0  0  0  0  0  0  0  0  0
  -86.5274   33.9208   -2.7213 C   0  0  0  0  0  0  0  0  0  0  0  0
  -87.5579   34.8760   -3.0971 C   0  0  0  0  0  0  0  0  0  0  0  0
  -88.8003   34.4802   -2.9927 C   0  0  0  0  0  0  0  0  0  0  0  0
  -89.7889   35.4447   -3.2382 F   0  0  0  0  0  0  0  0  0  0  0  0
  -89.2293   33.2376   -2.5776 C   0  0  0  0  0  0  0  0  0  0  0  0
  -86.9518   35.9534   -3.7718 N   0  0  0  0  0  0  0  0  0  0  0  0
  -85.9516   36.1772   -3.2773 H   0  0  0  0  0  0  0  0  0  0  0  0
  -87.2948   36.8415   -5.1152 S   0  0  0  0  0  0  0  0  0  0  0  0
  -85.9012   37.8775   -5.5719 C   0  0  0  0  0  0  0  0  0  0  0  0
  -88.5882   37.5468   -5.0011 O   0  0  0  0  0  0  0  0  0  0  0  0
  -87.3958   35.8271   -6.3012 O   0  0  0  0  0  0  0  0  0  0  0  0
  -86.9522   28.3383   -1.6413 C   0  0  0  0  0  0  0  0  0  0  0  0
  -87.3440   27.5422   -0.4500 C   0  0  0  0  0  0  0  0  0  0  0  0
  -88.3121   26.5775   -0.3484 C   0  0  0  0  0  0  0  0  0  0  0  0
  -88.9156   26.2462    0.9053 C   0  0  0  0  0  0  0  0  0  0  0  0
  -88.4947   26.9138    1.9614 C   0  0  0  0  0  0  0  0  0  0  0  0
  -87.5243   27.9041    1.8860 C   0  0  0  0  0  0  0  0  0  0  0  0
  -86.9578   28.2146    0.7382 C   0  0  0  0  0  0  0  0  0  0  0  0
  -85.7598   29.0782    0.4771 C   0  0  0  0  0  0  0  0  0  0  0  0
  -84.5956   28.6303    1.3880 C   0  0  0  0  0  0  0  0  0  0  0  0
  -84.7715   28.8147    2.8250 C   0  0  0  0  0  0  0  0  0  0  0  0
  -85.1343   30.2408    3.1642 C   0  0  0  0  0  0  0  0  0  0  0  0
  -85.2092   31.0944    1.9236 C   0  0  0  0  0  0  0  0  0  0  0  0
  -86.0263   30.5345    0.8057 C   0  0  0  0  0  0  0  0  0  0  0  0
  -89.3027   26.8713    3.2799 C   0  0  0  0  0  0  0  0  0  0  0  0
  -89.1085   25.8607    4.0528 F   0  0  0  0  0  0  0  0  0  0  0  0
  -90.6167   27.0915    2.9320 F   0  0  0  0  0  0  0  0  0  0  0  0
  -88.9307   28.0735    3.9588 F   0  0  0  0  0  0  0  0  0  0  0  0
  5  6  1  0  0  0
  6  1  1  0  0  0
  1  2  2  0  0  0
  1  3  1  0  0  0
  3 20  1  0  0  0
 20 21  1  0  0  0
 21 22  2  0  0  0
 22 23  1  0  0  0
 23 24  2  0  0  0
 24 33  1  0  0  0
 33 34  1  0  0  0
 33 35  1  0  0  0
 33 36  1  0  0  0
 24 25  1  0  0  0
 25 26  2  0  0  0
 26 27  1  0  0  0
 27 28  1  0  0  0
 28 29  1  0  0  0
 29 30  1  0  0  0
 30 31  1  0  0  0
 31 32  1  0  0  0
  6  7  1  0  0  0
  7  8  2  0  0  0
  8  9  1  0  0  0
  9 10  2  0  0  0
 10 14  1  0  0  0
 14 16  1  0  0  0
 16 17  1  0  0  0
 16 18  2  0  0  0
 16 19  2  0  0  0
 10 11  1  0  0  0
 11 12  1  0  0  0
 11 13  2  0  0  0
 26 21  1  0  0  0
 32 27  1  0  0  0
 13  7  1  0  0  0
  3  4  1  0  0  0
 14 15  1  0  0  0
M  END
> <minimizedAffinity>
-9.28700

> <CNNscore>
0.2086526304

> <CNNaffinity>
6.7673263550

> <CNN_VS>
1.4120204449

> <CNNaffinity_variance>
0.3122750223

$$$$
[H]c1c([H])c(C([H])(C(=O)N([H])C([H])([H])c2c([H])c([H])c(C(F)(F)F)c([H])c2C2([H])C([H])([H])C([H])([H])C([H])([H])C([H])([H])C2([H])[H])C([H])([H])[H])c([H])c(F)c1N([H])S(=O)(=O)C([H])([H])[H]


 36 38  0  0  0  0  0  0  0  0999 V2000
  -88.4924   30.9685   -4.3694 C   0  0  0  0  0  0  0  0  0  0  0  0
  -88.5010   31.1410   -5.4503 O   0  0  0  0  0  0  0  0  0  0  0  0
  -88.0868   30.2397   -3.2449 N   0  0  0  0  0  0  0  0  0  0  0  0
  -87.2908   29.4230   -4.0625 H   0  0  0  0  0  0  0  0  0  0  0  0
  -90.6068   31.8913   -4.1650 C   0  0  0  0  0  0  0  0  0  0  0  0
  -89.2919   32.0278   -3.3617 C   0  0  0  0  0  0  0  0  0  0  0  0
  -88.7539   33.3299   -3.5292 C   0  0  0  0  0  0  0  0  0  0  0  0
  -87.4469   33.6079   -3.5180 C   0  0  0  0  0  0  0  0  0  0  0  0
  -86.9239   34.7960   -3.8010 C   0  0  0  0  0  0  0  0  0  0  0  0
  -87.8301   35.8884   -4.1191 C   0  0  0  0  0  0  0  0  0  0  0  0
  -89.1101   35.6185   -4.1127 C   0  0  0  0  0  0  0  0  0  0  0  0
  -89.9809   36.7024   -4.2985 F   0  0  0  0  0  0  0  0  0  0  0  0
  -89.6849   34.3930   -3.8511 C   0  0  0  0  0  0  0  0  0  0  0  0
  -87.0818   36.9576   -4.6482 N   0  0  0  0  0  0  0  0  0  0  0  0
  -86.3543   37.3225   -3.8528 H   0  0  0  0  0  0  0  0  0  0  0  0
  -86.9505   37.6861   -6.1190 S   0  0  0  0  0  0  0  0  0  0  0  0
  -85.3916   38.5657   -6.2619 C   0  0  0  0  0  0  0  0  0  0  0  0
  -88.1503   38.4798   -6.4562 O   0  0  0  0  0  0  0  0  0  0  0  0
  -86.8152   36.5364   -7.1706 O   0  0  0  0  0  0  0  0  0  0  0  0
  -87.7209   29.5839   -2.2456 C   0  0  0  0  0  0  0  0  0  0  0  0
  -87.2179   30.0024   -0.9120 C   0  0  0  0  0  0  0  0  0  0  0  0
  -86.5659   31.1581   -0.5695 C   0  0  0  0  0  0  0  0  0  0  0  0
  -85.7240   31.2334    0.5844 C   0  0  0  0  0  0  0  0  0  0  0  0
  -85.6054   30.1359    1.3052 C   0  0  0  0  0  0  0  0  0  0  0  0
  -86.2445   28.9482    0.9752 C   0  0  0  0  0  0  0  0  0  0  0  0
  -87.0261   28.8678   -0.0819 C   0  0  0  0  0  0  0  0  0  0  0  0
  -87.9640   27.7688   -0.4841 C   0  0  0  0  0  0  0  0  0  0  0  0
  -89.3149   27.9555    0.2412 C   0  0  0  0  0  0  0  0  0  0  0  0
  -89.3117   27.8096    1.6933 C   0  0  0  0  0  0  0  0  0  0  0  0
  -88.7076   26.4932    2.1204 C   0  0  0  0  0  0  0  0  0  0  0  0
  -88.2766   25.6782    0.9273 C   0  0  0  0  0  0  0  0  0  0  0  0
  -87.4450   26.4022   -0.0801 C   0  0  0  0  0  0  0  0  0  0  0  0
  -84.4785   30.0162    2.3582 C   0  0  0  0  0  0  0  0  0  0  0  0
  -83.4404   29.3305    2.0289 F   0  0  0  0  0  0  0  0  0  0  0  0
  -85.0872   29.6213    3.5286 F   0  0  0  0  0  0  0  0  0  0  0  0
  -84.0970   31.3692    2.6198 F   0  0  0  0  0  0  0  0  0  0  0  0
  5  6  1  0  0  0
  6  1  1  0  0  0
  1  2  2  0  0  0
  1  3  1  0  0  0
  3 20  1  0  0  0
 20 21  1  0  0  0
 21 22  2  0  0  0
 22 23  1  0  0  0
 23 24  2  0  0  0
 24 33  1  0  0  0
 33 34  1  0  0  0
 33 35  1  0  0  0
 33 36  1  0  0  0
 24 25  1  0  0  0
 25 26  2  0  0  0
 26 27  1  0  0  0
 27 28  1  0  0  0
 28 29  1  0  0  0
 29 30  1  0  0  0
 30 31  1  0  0  0
 31 32  1  0  0  0
  6  7  1  0  0  0
  7  8  2  0  0  0
  8  9  1  0  0  0
  9 10  2  0  0  0
 10 14  1  0  0  0
 14 16  1  0  0  0
 16 17  1  0  0  0
 16 18  2  0  0  0
 16 19  2  0  0  0
 10 11  1  0  0  0
 11 12  1  0  0  0
 11 13  2  0  0  0
 26 21  1  0  0  0
 32 27  1  0  0  0
 13  7  1  0  0  0
  3  4  1  0  0  0
 14 15  1  0  0  0
M  END
> <minimizedAffinity>
-9.29312

> <CNNscore>
0.2014593333

> <CNNaffinity>
6.6239728928

> <CNN_VS>
1.3344612122

> <CNNaffinity_variance>
0.2719045877

$$$$
[H]c1c([H])c(C([H])(C(=O)N([H])C([H])([H])c2c([H])c([H])c(C(F)(F)F)c([H])c2C2([H])C([H])([H])C([H])([H])C([H])([H])C([H])([H])C2([H])[H])C([H])([H])[H])c([H])c(F)c1N([H])S(=O)(=O)C([H])([H])[H]


 36 38  0  0  0  0  0  0  0  0999 V2000
  -89.7650   30.2088   -3.2578 C   0  0  0  0  0  0  0  0  0  0  0  0
  -89.2039   30.4796   -4.1579 O   0  0  0  0  0  0  0  0  0  0  0  0
  -90.5461   29.3104   -2.5210 N   0  0  0  0  0  0  0  0  0  0  0  0
  -90.3981   28.3517   -3.5349 H   0  0  0  0  0  0  0  0  0  0  0  0
  -89.8131   32.4973   -2.9044 C   0  0  0  0  0  0  0  0  0  0  0  0
  -89.8116   31.2648   -1.9696 C   0  0  0  0  0  0  0  0  0  0  0  0
  -88.5839   31.1942   -1.2618 C   0  0  0  0  0  0  0  0  0  0  0  0
  -88.0811   30.0698   -0.7438 C   0  0  0  0  0  0  0  0  0  0  0  0
  -86.8766   29.9632   -0.1932 C   0  0  0  0  0  0  0  0  0  0  0  0
  -86.0475   31.1558   -0.1164 C   0  0  0  0  0  0  0  0  0  0  0  0
  -86.5484   32.2594   -0.6086 C   0  0  0  0  0  0  0  0  0  0  0  0
  -85.7961   33.4284   -0.4207 F   0  0  0  0  0  0  0  0  0  0  0  0
  -87.7807   32.3995   -1.2105 C   0  0  0  0  0  0  0  0  0  0  0  0
  -84.7384   30.7747    0.2362 N   0  0  0  0  0  0  0  0  0  0  0  0
  -84.2656   30.2340   -0.6464 H   0  0  0  0  0  0  0  0  0  0  0  0
  -83.7503   31.0223    1.5298 S   0  0  0  0  0  0  0  0  0  0  0  0
  -84.6951   31.5261    2.9713 C   0  0  0  0  0  0  0  0  0  0  0  0
  -82.6046   31.8938    1.1965 O   0  0  0  0  0  0  0  0  0  0  0  0
  -83.1929   29.6183    1.9348 O   0  0  0  0  0  0  0  0  0  0  0  0
  -91.2431   28.5031   -1.8691 C   0  0  0  0  0  0  0  0  0  0  0  0
  -91.1971   28.0716   -0.4485 C   0  0  0  0  0  0  0  0  0  0  0  0
  -91.2983   28.8408    0.6812 C   0  0  0  0  0  0  0  0  0  0  0  0
  -90.7651   28.4084    1.9361 C   0  0  0  0  0  0  0  0  0  0  0  0
  -90.1711   27.2315    1.9547 C   0  0  0  0  0  0  0  0  0  0  0  0
  -90.0438   26.4368    0.8233 C   0  0  0  0  0  0  0  0  0  0  0  0
  -90.5349   26.8218   -0.3366 C   0  0  0  0  0  0  0  0  0  0  0  0
  -90.6973   26.0357   -1.6035 C   0  0  0  0  0  0  0  0  0  0  0  0
  -92.0111   25.2260   -1.5404 C   0  0  0  0  0  0  0  0  0  0  0  0
  -92.0889   24.1685   -0.5376 C   0  0  0  0  0  0  0  0  0  0  0  0
  -90.9294   23.2075   -0.6491 C   0  0  0  0  0  0  0  0  0  0  0  0
  -90.0053   23.5960   -1.7753 C   0  0  0  0  0  0  0  0  0  0  0  0
  -89.5804   25.0277   -1.7942 C   0  0  0  0  0  0  0  0  0  0  0  0
  -89.2834   26.8285    3.1558 C   0  0  0  0  0  0  0  0  0  0  0  0
  -89.0360   25.5744    3.3056 F   0  0  0  0  0  0  0  0  0  0  0  0
  -89.8259   27.4485    4.2591 F   0  0  0  0  0  0  0  0  0  0  0  0
  -88.0600   27.5371    2.9419 F   0  0  0  0  0  0  0  0  0  0  0  0
  5  6  1  0  0  0
  6  1  1  0  0  0
  1  2  2  0  0  0
  1  3  1  0  0  0
  3 20  1  0  0  0
 20 21  1  0  0  0
 21 22  2  0  0  0
 22 23  1  0  0  0
 23 24  2  0  0  0
 24 33  1  0  0  0
 33 34  1  0  0  0
 33 35  1  0  0  0
 33 36  1  0  0  0
 24 25  1  0  0  0
 25 26  2  0  0  0
 26 27  1  0  0  0
 27 28  1  0  0  0
 28 29  1  0  0  0
 29 30  1  0  0  0
 30 31  1  0  0  0
 31 32  1  0  0  0
  6  7  1  0  0  0
  7  8  2  0  0  0
  8  9  1  0  0  0
  9 10  2  0  0  0
 10 14  1  0  0  0
 14 16  1  0  0  0
 16 17  1  0  0  0
 16 18  2  0  0  0
 16 19  2  0  0  0
 10 11  1  0  0  0
 11 12  1  0  0  0
 11 13  2  0  0  0
 26 21  1  0  0  0
 32 27  1  0  0  0
 13  7  1  0  0  0
  3  4  1  0  0  0
 14 15  1  0  0  0
M  END
> <minimizedAffinity>
-8.22734

> <CNNscore>
0.1514216214

> <CNNaffinity>
6.7052483559

> <CNN_VS>
1.0153195858

> <CNNaffinity_variance>
0.2170161903

$$$$
[H]c1c([H])c(C([H])(C(=O)N([H])C([H])([H])c2c([H])c([H])c(C(F)(F)F)c([H])c2C2([H])C([H])([H])C([H])([H])C([H])([H])C([H])([H])C2([H])[H])C([H])([H])[H])c([H])c(F)c1N([H])S(=O)(=O)C([H])([H])[H]


 36 38  0  0  0  0  0  0  0  0999 V2000
  -88.3111   32.3274   -1.6033 C   0  0  0  0  0  0  0  0  0  0  0  0
  -89.0502   33.0809   -1.3132 O   0  0  0  0  0  0  0  0  0  0  0  0
  -87.7807   31.0339   -1.5274 N   0  0  0  0  0  0  0  0  0  0  0  0
  -88.8380   30.6506   -0.6882 H   0  0  0  0  0  0  0  0  0  0  0  0
  -86.2974   33.4688   -1.6833 C   0  0  0  0  0  0  0  0  0  0  0  0
  -87.1460   32.7105   -2.7312 C   0  0  0  0  0  0  0  0  0  0  0  0
  -87.6871   33.6253   -3.6712 C   0  0  0  0  0  0  0  0  0  0  0  0
  -87.2165   34.8596   -3.8721 C   0  0  0  0  0  0  0  0  0  0  0  0
  -87.6276   35.6786   -4.8342 C   0  0  0  0  0  0  0  0  0  0  0  0
  -88.6860   35.2214   -5.7210 C   0  0  0  0  0  0  0  0  0  0  0  0
  -89.1574   34.0192   -5.5118 C   0  0  0  0  0  0  0  0  0  0  0  0
  -90.2590   33.6330   -6.2896 F   0  0  0  0  0  0  0  0  0  0  0  0
  -88.7360   33.1341   -4.5424 C   0  0  0  0  0  0  0  0  0  0  0  0
  -88.7743   36.1056   -6.8135 N   0  0  0  0  0  0  0  0  0  0  0  0
  -89.6871   35.8285   -7.4341 H   0  0  0  0  0  0  0  0  0  0  0  0
  -87.9616   37.4501   -7.3062 S   0  0  0  0  0  0  0  0  0  0  0  0
  -88.7315   38.1675   -8.7611 C   0  0  0  0  0  0  0  0  0  0  0  0
  -86.5080   37.2113   -7.4208 O   0  0  0  0  0  0  0  0  0  0  0  0
  -88.1919   38.5344   -6.2029 O   0  0  0  0  0  0  0  0  0  0  0  0
  -87.3126   29.8771   -1.4544 C   0  0  0  0  0  0  0  0  0  0  0  0
  -87.6620   28.7160   -0.5965 C   0  0  0  0  0  0  0  0  0  0  0  0
  -88.7674   27.9085   -0.6611 C   0  0  0  0  0  0  0  0  0  0  0  0
  -89.2253   27.1674    0.4734 C   0  0  0  0  0  0  0  0  0  0  0  0
  -88.5312   27.2976    1.5868 C   0  0  0  0  0  0  0  0  0  0  0  0
  -87.4148   28.1174    1.6841 C   0  0  0  0  0  0  0  0  0  0  0  0
  -86.9806   28.8008    0.6452 C   0  0  0  0  0  0  0  0  0  0  0  0
  -85.6953   29.5554    0.4789 C   0  0  0  0  0  0  0  0  0  0  0  0
  -84.5827   28.8605    1.2944 C   0  0  0  0  0  0  0  0  0  0  0  0
  -84.7278   28.8624    2.7466 C   0  0  0  0  0  0  0  0  0  0  0  0
  -84.9268   30.2589    3.2856 C   0  0  0  0  0  0  0  0  0  0  0  0
  -84.9137   31.2790    2.1755 C   0  0  0  0  0  0  0  0  0  0  0  0
  -85.7953   30.9726    1.0095 C   0  0  0  0  0  0  0  0  0  0  0  0
  -89.1234   26.8153    2.9321 C   0  0  0  0  0  0  0  0  0  0  0  0
  -89.1130   27.6525    3.9096 F   0  0  0  0  0  0  0  0  0  0  0  0
  -88.5287   25.6027    3.2005 F   0  0  0  0  0  0  0  0  0  0  0  0
  -90.4727   26.4632    2.6158 F   0  0  0  0  0  0  0  0  0  0  0  0
  5  6  1  0  0  0
  6  1  1  0  0  0
  1  2  2  0  0  0
  1  3  1  0  0  0
  3 20  1  0  0  0
 20 21  1  0  0  0
 21 22  2  0  0  0
 22 23  1  0  0  0
 23 24  2  0  0  0
 24 33  1  0  0  0
 33 34  1  0  0  0
 33 35  1  0  0  0
 33 36  1  0  0  0
 24 25  1  0  0  0
 25 26  2  0  0  0
 26 27  1  0  0  0
 27 28  1  0  0  0
 28 29  1  0  0  0
 29 30  1  0  0  0
 30 31  1  0  0  0
 31 32  1  0  0  0
  6  7  1  0  0  0
  7  8  2  0  0  0
  8  9  1  0  0  0
  9 10  2  0  0  0
 10 14  1  0  0  0
 14 16  1  0  0  0
 16 17  1  0  0  0
 16 18  2  0  0  0
 16 19  2  0  0  0
 10 11  1  0  0  0
 11 12  1  0  0  0
 11 13  2  0  0  0
 26 21  1  0  0  0
 32 27  1  0  0  0
 13  7  1  0  0  0
  3  4  1  0  0  0
 14 15  1  0  0  0
M  END
> <minimizedAffinity>
-8.71907

> <CNNscore>
0.1386687011

> <CNNaffinity>
6.4365715981

> <CNN_VS>
0.8925510049

> <CNNaffinity_variance>
0.1737611890

$$$$
[H]OC(=O)C([H])([H])N(C([H])([H])c1c([H])c([H])c([H])c(OC([H])([H])C([H])([H])c2nc(-c3c([H])c([H])c([H])c([H])c3[H])oc2C([H])([H])[H])c1[H])C([H])([H])c1c([H])c([H])c2c([H])c([H])c([H])c([H])c2c1[H]


 39 43  0  0  0  0  0  0  0  0999 V2000
  -86.8363   27.7125    0.2940 C   0  0  0  0  0  0  0  0  0  0  0  0
  -86.5877   28.6000   -0.7146 C   0  0  0  0  0  0  0  0  0  0  0  0
  -87.2063   28.4401   -1.9316 C   0  0  0  0  0  0  0  0  0  0  0  0
  -88.0825   27.4107   -2.1918 C   0  0  0  0  0  0  0  0  0  0  0  0
  -88.3549   26.4999   -1.1979 C   0  0  0  0  0  0  0  0  0  0  0  0
  -87.7322   26.6694    0.0104 C   0  0  0  0  0  0  0  0  0  0  0  0
  -86.2682   27.7946    1.5222 O   0  0  0  0  0  0  0  0  0  0  0  0
  -85.0744   28.2556    1.9879 C   0  0  0  0  0  0  0  0  0  0  0  0
  -85.0094   29.6541    2.5060 C   0  0  0  0  0  0  0  0  0  0  0  0
  -82.6062   31.0430    1.0417 C   0  0  0  0  0  0  0  0  0  0  0  0
  -84.0296   31.2761    0.7374 C   0  0  0  0  0  0  0  0  0  0  0  0
  -84.5257   32.0823   -0.1741 O   0  0  0  0  0  0  0  0  0  0  0  0
  -85.8343   32.0313   -0.1598 C   0  0  0  0  0  0  0  0  0  0  0  0
  -86.1760   31.1547    0.8025 N   0  0  0  0  0  0  0  0  0  0  0  0
  -85.0867   30.6571    1.3906 C   0  0  0  0  0  0  0  0  0  0  0  0
  -86.7580   32.7694   -1.0102 C   0  0  0  0  0  0  0  0  0  0  0  0
  -88.1133   32.5179   -0.9638 C   0  0  0  0  0  0  0  0  0  0  0  0
  -89.0160   33.2089   -1.7678 C   0  0  0  0  0  0  0  0  0  0  0  0
  -88.5557   34.1714   -2.6367 C   0  0  0  0  0  0  0  0  0  0  0  0
  -87.2185   34.4386   -2.7008 C   0  0  0  0  0  0  0  0  0  0  0  0
  -86.3241   33.7366   -1.8873 C   0  0  0  0  0  0  0  0  0  0  0  0
  -89.2837   25.3969   -1.4689 C   0  0  0  0  0  0  0  0  0  0  0  0
  -90.6398   25.6087   -1.0918 N   0  0  0  0  0  0  0  0  0  0  0  0
  -91.4829   25.9051   -2.1942 C   0  0  0  0  0  0  0  0  0  0  0  0
  -91.7127   27.3319   -2.4568 C   0  0  0  0  0  0  0  0  0  0  0  0
  -91.3049   27.9812   -3.4347 O   0  0  0  0  0  0  0  0  0  0  0  0
  -92.4705   28.0532   -1.5135 O   0  0  0  0  0  0  0  0  0  0  0  0
  -92.0109   28.7326   -0.9239 H   0  0  0  0  0  0  0  0  0  0  0  0
  -91.1369   24.6420   -0.1587 C   0  0  0  0  0  0  0  0  0  0  0  0
  -90.8389   24.8980    1.2472 C   0  0  0  0  0  0  0  0  0  0  0  0
  -90.6464   23.9417    2.2174 C   0  0  0  0  0  0  0  0  0  0  0  0
  -90.3730   24.2891    3.5315 C   0  0  0  0  0  0  0  0  0  0  0  0
  -90.2799   25.6036    3.9321 C   0  0  0  0  0  0  0  0  0  0  0  0
  -90.0070   25.9114    5.2482 C   0  0  0  0  0  0  0  0  0  0  0  0
  -89.9130   27.2259    5.6592 C   0  0  0  0  0  0  0  0  0  0  0  0
  -90.1011   28.2079    4.7112 C   0  0  0  0  0  0  0  0  0  0  0  0
  -90.3770   27.8939    3.3793 C   0  0  0  0  0  0  0  0  0  0  0  0
  -90.4702   26.5760    2.9713 C   0  0  0  0  0  0  0  0  0  0  0  0
  -90.7421   26.2251    1.6648 C   0  0  0  0  0  0  0  0  0  0  0  0
 10 11  1  0  0  0
 11 12  1  0  0  0
 12 13  1  0  0  0
 13 16  1  0  0  0
 16 17  2  0  0  0
 17 18  1  0  0  0
 18 19  2  0  0  0
 19 20  1  0  0  0
 20 21  2  0  0  0
 13 14  2  0  0  0
 14 15  1  0  0  0
 15  9  1  0  0  0
  9  8  1  0  0  0
  8  7  1  0  0  0
  7  1  1  0  0  0
  1  2  2  0  0  0
  2  3  1  0  0  0
  3  4  2  0  0  0
  4  5  1  0  0  0
  5 22  1  0  0  0
 22 23  1  0  0  0
 23 24  1  0  0  0
 24 25  1  0  0  0
 25 26  2  0  0  0
 25 27  1  0  0  0
 23 29  1  0  0  0
 29 30  1  0  0  0
 30 31  2  0  0  0
 31 32  1  0  0  0
 32 33  2  0  0  0
 33 34  1  0  0  0
 34 35  2  0  0  0
 35 36  1  0  0  0
 36 37  2  0  0  0
 37 38  1  0  0  0
 38 39  2  0  0  0
  5  6  2  0  0  0
 15 11  2  0  0  0
  6  1  1  0  0  0
 21 16  1  0  0  0
 39 30  1  0  0  0
 38 33  1  0  0  0
 27 28  1  0  0  0
M  END
> <minimizedAffinity>
-9.17557

> <CNNscore>
0.2978798151

> <CNNaffinity>
6.8748779297

> <CNN_VS>
2.0478873253

> <CNNaffinity_variance>
0.3444383740

$$$$
[H]OC(=O)C([H])([H])N(C([H])([H])c1c([H])c([H])c([H])c(OC([H])([H])C([H])([H])c2nc(-c3c([H])c([H])c([H])c([H])c3[H])oc2C([H])([H])[H])c1[H])C([H])([H])c1c([H])c([H])c2c([H])c([H])c([H])c([H])c2c1[H]


 39 43  0  0  0  0  0  0  0  0999 V2000
  -86.0506   31.0619    0.0397 C   0  0  0  0  0  0  0  0  0  0  0  0
  -85.4940   30.1131    0.8499 C   0  0  0  0  0  0  0  0  0  0  0  0
  -85.9395   28.8143    0.7851 C   0  0  0  0  0  0  0  0  0  0  0  0
  -86.9381   28.4119   -0.0728 C   0  0  0  0  0  0  0  0  0  0  0  0
  -87.5194   29.3422   -0.9023 C   0  0  0  0  0  0  0  0  0  0  0  0
  -87.0674   30.6332   -0.8283 C   0  0  0  0  0  0  0  0  0  0  0  0
  -85.6731   32.3641    0.0407 O   0  0  0  0  0  0  0  0  0  0  0  0
  -86.0425   33.4609   -0.6770 C   0  0  0  0  0  0  0  0  0  0  0  0
  -85.8043   33.4554   -2.1506 C   0  0  0  0  0  0  0  0  0  0  0  0
  -87.4297   31.7961   -4.2609 C   0  0  0  0  0  0  0  0  0  0  0  0
  -87.7494   33.1724   -3.8403 C   0  0  0  0  0  0  0  0  0  0  0  0
  -88.7424   33.9221   -4.2631 O   0  0  0  0  0  0  0  0  0  0  0  0
  -88.7143   35.0884   -3.6680 C   0  0  0  0  0  0  0  0  0  0  0  0
  -87.6579   35.0713   -2.8346 N   0  0  0  0  0  0  0  0  0  0  0  0
  -87.0245   33.8992   -2.9058 C   0  0  0  0  0  0  0  0  0  0  0  0
  -89.6364   36.2001   -3.8559 C   0  0  0  0  0  0  0  0  0  0  0  0
  -90.9887   35.9763   -4.0088 C   0  0  0  0  0  0  0  0  0  0  0  0
  -91.8897   37.0221   -4.1913 C   0  0  0  0  0  0  0  0  0  0  0  0
  -91.4306   38.3189   -4.2222 C   0  0  0  0  0  0  0  0  0  0  0  0
  -90.0963   38.5660   -4.0731 C   0  0  0  0  0  0  0  0  0  0  0  0
  -89.2037   37.5057   -3.8905 C   0  0  0  0  0  0  0  0  0  0  0  0
  -88.5879   28.9222   -1.8159 C   0  0  0  0  0  0  0  0  0  0  0  0
  -89.9194   29.2052   -1.3998 N   0  0  0  0  0  0  0  0  0  0  0  0
  -90.6443   29.9769   -2.3448 C   0  0  0  0  0  0  0  0  0  0  0  0
  -90.4958   31.4335   -2.2283 C   0  0  0  0  0  0  0  0  0  0  0  0
  -89.9218   32.0498   -1.3147 O   0  0  0  0  0  0  0  0  0  0  0  0
  -91.0561   32.2281   -3.2477 O   0  0  0  0  0  0  0  0  0  0  0  0
  -91.8768   32.7826   -3.0491 H   0  0  0  0  0  0  0  0  0  0  0  0
  -90.6048   28.0740   -0.8495 C   0  0  0  0  0  0  0  0  0  0  0  0
  -90.5988   27.9686    0.6065 C   0  0  0  0  0  0  0  0  0  0  0  0
  -91.0698   28.9166    1.4852 C   0  0  0  0  0  0  0  0  0  0  0  0
  -91.0129   28.7232    2.8569 C   0  0  0  0  0  0  0  0  0  0  0  0
  -90.4848   27.5771    3.4087 C   0  0  0  0  0  0  0  0  0  0  0  0
  -90.4444   27.4198    4.7780 C   0  0  0  0  0  0  0  0  0  0  0  0
  -89.9158   26.2751    5.3401 C   0  0  0  0  0  0  0  0  0  0  0  0
  -89.4351   25.3061    4.4867 C   0  0  0  0  0  0  0  0  0  0  0  0
  -89.4773   25.4674    3.1007 C   0  0  0  0  0  0  0  0  0  0  0  0
  -90.0078   26.6154    2.5413 C   0  0  0  0  0  0  0  0  0  0  0  0
  -90.0665   26.8126    1.1769 C   0  0  0  0  0  0  0  0  0  0  0  0
 10 11  1  0  0  0
 11 12  1  0  0  0
 12 13  1  0  0  0
 13 16  1  0  0  0
 16 17  2  0  0  0
 17 18  1  0  0  0
 18 19  2  0  0  0
 19 20  1  0  0  0
 20 21  2  0  0  0
 13 14  2  0  0  0
 14 15  1  0  0  0
 15  9  1  0  0  0
  9  8  1  0  0  0
  8  7  1  0  0  0
  7  1  1  0  0  0
  1  2  2  0  0  0
  2  3  1  0  0  0
  3  4  2  0  0  0
  4  5  1  0  0  0
  5 22  1  0  0  0
 22 23  1  0  0  0
 23 24  1  0  0  0
 24 25  1  0  0  0
 25 26  2  0  0  0
 25 27  1  0  0  0
 23 29  1  0  0  0
 29 30  1  0  0  0
 30 31  2  0  0  0
 31 32  1  0  0  0
 32 33  2  0  0  0
 33 34  1  0  0  0
 34 35  2  0  0  0
 35 36  1  0  0  0
 36 37  2  0  0  0
 37 38  1  0  0  0
 38 39  2  0  0  0
  5  6  2  0  0  0
 15 11  2  0  0  0
  6  1  1  0  0  0
 21 16  1  0  0  0
 39 30  1  0  0  0
 38 33  1  0  0  0
 27 28  1  0  0  0
M  END
> <minimizedAffinity>
-8.60922

> <CNNscore>
0.2409810722

> <CNNaffinity>
6.0255594254

> <CNN_VS>
1.4520457983

> <CNNaffinity_variance>
0.8837720752

$$$$
[H]OC(=O)C([H])([H])N(C([H])([H])c1c([H])c([H])c([H])c(OC([H])([H])C([H])([H])c2nc(-c3c([H])c([H])c([H])c([H])c3[H])oc2C([H])([H])[H])c1[H])C([H])([H])c1c([H])c([H])c2c([H])c([H])c([H])c([H])c2c1[H]


 39 43  0  0  0  0  0  0  0  0999 V2000
  -91.0659   29.0735   -1.7015 C   0  0  0  0  0  0  0  0  0  0  0  0
  -90.4367   28.5694   -0.5985 C   0  0  0  0  0  0  0  0  0  0  0  0
  -89.4645   29.3103    0.0302 C   0  0  0  0  0  0  0  0  0  0  0  0
  -89.0849   30.5606   -0.4028 C   0  0  0  0  0  0  0  0  0  0  0  0
  -89.6988   31.0975   -1.5102 C   0  0  0  0  0  0  0  0  0  0  0  0
  -90.6657   30.3496   -2.1285 C   0  0  0  0  0  0  0  0  0  0  0  0
  -92.0325   28.4099   -2.3823 O   0  0  0  0  0  0  0  0  0  0  0  0
  -93.2676   28.7453   -2.8477 C   0  0  0  0  0  0  0  0  0  0  0  0
  -93.3568   29.5439   -4.1057 C   0  0  0  0  0  0  0  0  0  0  0  0
  -93.7967   31.8443   -6.1945 C   0  0  0  0  0  0  0  0  0  0  0  0
  -94.2584   31.8743   -4.7948 C   0  0  0  0  0  0  0  0  0  0  0  0
  -94.9161   32.8414   -4.1956 O   0  0  0  0  0  0  0  0  0  0  0  0
  -95.1593   32.5192   -2.9497 C   0  0  0  0  0  0  0  0  0  0  0  0
  -94.6318   31.2962   -2.7571 N   0  0  0  0  0  0  0  0  0  0  0  0
  -94.0592   30.8518   -3.8773 C   0  0  0  0  0  0  0  0  0  0  0  0
  -95.8619   33.3134   -1.9512 C   0  0  0  0  0  0  0  0  0  0  0  0
  -95.6348   34.6694   -1.8417 C   0  0  0  0  0  0  0  0  0  0  0  0
  -96.2927   35.4496   -0.8945 C   0  0  0  0  0  0  0  0  0  0  0  0
  -97.1964   34.8634   -0.0383 C   0  0  0  0  0  0  0  0  0  0  0  0
  -97.4384   33.5227   -0.1272 C   0  0  0  0  0  0  0  0  0  0  0  0
  -96.7702   32.7523   -1.0835 C   0  0  0  0  0  0  0  0  0  0  0  0
  -89.2962   32.4275   -1.9810 C   0  0  0  0  0  0  0  0  0  0  0  0
  -87.9426   32.5641   -2.3995 N   0  0  0  0  0  0  0  0  0  0  0  0
  -87.8100   32.7417   -3.8013 C   0  0  0  0  0  0  0  0  0  0  0  0
  -88.2049   31.5953   -4.6304 C   0  0  0  0  0  0  0  0  0  0  0  0
  -87.6283   30.4968   -4.7000 O   0  0  0  0  0  0  0  0  0  0  0  0
  -89.3520   31.7390   -5.4352 O   0  0  0  0  0  0  0  0  0  0  0  0
  -89.2483   31.8097   -6.4375 H   0  0  0  0  0  0  0  0  0  0  0  0
  -87.1700   33.4453   -1.5756 C   0  0  0  0  0  0  0  0  0  0  0  0
  -85.9784   32.8667   -0.9621 C   0  0  0  0  0  0  0  0  0  0  0  0
  -84.7003   33.3673   -1.0547 C   0  0  0  0  0  0  0  0  0  0  0  0
  -83.6302   32.7375   -0.4377 C   0  0  0  0  0  0  0  0  0  0  0  0
  -83.7904   31.5834    0.2969 C   0  0  0  0  0  0  0  0  0  0  0  0
  -82.7026   30.9844    0.8960 C   0  0  0  0  0  0  0  0  0  0  0  0
  -82.8533   29.8269    1.6331 C   0  0  0  0  0  0  0  0  0  0  0  0
  -84.1213   29.2996    1.7446 C   0  0  0  0  0  0  0  0  0  0  0  0
  -85.2212   29.9080    1.1373 C   0  0  0  0  0  0  0  0  0  0  0  0
  -85.0664   31.0675    0.4000 C   0  0  0  0  0  0  0  0  0  0  0  0
  -86.1281   31.6980   -0.2159 C   0  0  0  0  0  0  0  0  0  0  0  0
 10 11  1  0  0  0
 11 12  1  0  0  0
 12 13  1  0  0  0
 13 16  1  0  0  0
 16 17  2  0  0  0
 17 18  1  0  0  0
 18 19  2  0  0  0
 19 20  1  0  0  0
 20 21  2  0  0  0
 13 14  2  0  0  0
 14 15  1  0  0  0
 15  9  1  0  0  0
  9  8  1  0  0  0
  8  7  1  0  0  0
  7  1  1  0  0  0
  1  2  2  0  0  0
  2  3  1  0  0  0
  3  4  2  0  0  0
  4  5  1  0  0  0
  5 22  1  0  0  0
 22 23  1  0  0  0
 23 24  1  0  0  0
 24 25  1  0  0  0
 25 26  2  0  0  0
 25 27  1  0  0  0
 23 29  1  0  0  0
 29 30  1  0  0  0
 30 31  2  0  0  0
 31 32  1  0  0  0
 32 33  2  0  0  0
 33 34  1  0  0  0
 34 35  2  0  0  0
 35 36  1  0  0  0
 36 37  2  0  0  0
 37 38  1  0  0  0
 38 39  2  0  0  0
  5  6  2  0  0  0
 15 11  2  0  0  0
  6  1  1  0  0  0
 21 16  1  0  0  0
 39 30  1  0  0  0
 38 33  1  0  0  0
 27 28  1  0  0  0
M  END
> <minimizedAffinity>
-8.77252

> <CNNscore>
0.2132926434

> <CNNaffinity>
6.0181398392

> <CNN_VS>
1.2836250067

> <CNNaffinity_variance>
0.5102060437

$$$$
[H]OC(=O)C([H])([H])N(C([H])([H])c1c([H])c([H])c([H])c(OC([H])([H])C([H])([H])c2nc(-c3c([H])c([H])c([H])c([H])c3[H])oc2C([H])([H])[H])c1[H])C([H])([H])c1c([H])c([H])c2c([H])c([H])c([H])c([H])c2c1[H]


 39 43  0  0  0  0  0  0  0  0999 V2000
  -88.6171   31.8034   -0.6937 C   0  0  0  0  0  0  0  0  0  0  0  0
  -87.3127   32.1332   -0.4559 C   0  0  0  0  0  0  0  0  0  0  0  0
  -86.7153   33.1275   -1.1935 C   0  0  0  0  0  0  0  0  0  0  0  0
  -87.3777   33.8232   -2.1794 C   0  0  0  0  0  0  0  0  0  0  0  0
  -88.6919   33.5162   -2.4439 C   0  0  0  0  0  0  0  0  0  0  0  0
  -89.2764   32.5233   -1.7028 C   0  0  0  0  0  0  0  0  0  0  0  0
  -89.2816   30.8356   -0.0155 O   0  0  0  0  0  0  0  0  0  0  0  0
  -90.2289   29.9179   -0.3541 C   0  0  0  0  0  0  0  0  0  0  0  0
  -89.8765   28.4703   -0.2622 C   0  0  0  0  0  0  0  0  0  0  0  0
  -89.8455   26.8690    2.4366 C   0  0  0  0  0  0  0  0  0  0  0  0
  -88.6773   27.5414    1.8397 C   0  0  0  0  0  0  0  0  0  0  0  0
  -87.4548   27.5857    2.3197 O   0  0  0  0  0  0  0  0  0  0  0  0
  -86.6788   28.2730    1.5193 C   0  0  0  0  0  0  0  0  0  0  0  0
  -87.4467   28.6785    0.4912 N   0  0  0  0  0  0  0  0  0  0  0  0
  -88.7001   28.2480    0.6450 C   0  0  0  0  0  0  0  0  0  0  0  0
  -85.2599   28.5548    1.6890 C   0  0  0  0  0  0  0  0  0  0  0  0
  -84.4592   27.7169    2.4367 C   0  0  0  0  0  0  0  0  0  0  0  0
  -83.1009   27.9658    2.6148 C   0  0  0  0  0  0  0  0  0  0  0  0
  -82.5300   29.0750    2.0343 C   0  0  0  0  0  0  0  0  0  0  0  0
  -83.3018   29.9195    1.2894 C   0  0  0  0  0  0  0  0  0  0  0  0
  -84.6643   29.6565    1.1193 C   0  0  0  0  0  0  0  0  0  0  0  0
  -89.4034   34.2496   -3.4968 C   0  0  0  0  0  0  0  0  0  0  0  0
  -88.9524   34.0334   -4.8295 N   0  0  0  0  0  0  0  0  0  0  0  0
  -89.5749   32.9208   -5.4528 C   0  0  0  0  0  0  0  0  0  0  0  0
  -89.0451   31.6020   -5.0818 C   0  0  0  0  0  0  0  0  0  0  0  0
  -87.8495   31.2648   -5.0513 O   0  0  0  0  0  0  0  0  0  0  0  0
  -89.9736   30.6059   -4.7213 O   0  0  0  0  0  0  0  0  0  0  0  0
  -90.1336   29.8283   -5.3459 H   0  0  0  0  0  0  0  0  0  0  0  0
  -88.8692   35.2306   -5.6119 C   0  0  0  0  0  0  0  0  0  0  0  0
  -88.3298   36.4037   -4.9308 C   0  0  0  0  0  0  0  0  0  0  0  0
  -88.9728   37.1404   -3.9631 C   0  0  0  0  0  0  0  0  0  0  0  0
  -88.3745   38.2465   -3.3792 C   0  0  0  0  0  0  0  0  0  0  0  0
  -87.1110   38.6631   -3.7356 C   0  0  0  0  0  0  0  0  0  0  0  0
  -86.5480   39.7684   -3.1335 C   0  0  0  0  0  0  0  0  0  0  0  0
  -85.2827   40.1941   -3.4852 C   0  0  0  0  0  0  0  0  0  0  0  0
  -84.6121   39.4775   -4.4521 C   0  0  0  0  0  0  0  0  0  0  0  0
  -85.1840   38.3585   -5.0601 C   0  0  0  0  0  0  0  0  0  0  0  0
  -86.4515   37.9350   -4.7051 C   0  0  0  0  0  0  0  0  0  0  0  0
  -87.0513   36.8350   -5.2833 C   0  0  0  0  0  0  0  0  0  0  0  0
 10 11  1  0  0  0
 11 12  1  0  0  0
 12 13  1  0  0  0
 13 16  1  0  0  0
 16 17  2  0  0  0
 17 18  1  0  0  0
 18 19  2  0  0  0
 19 20  1  0  0  0
 20 21  2  0  0  0
 13 14  2  0  0  0
 14 15  1  0  0  0
 15  9  1  0  0  0
  9  8  1  0  0  0
  8  7  1  0  0  0
  7  1  1  0  0  0
  1  2  2  0  0  0
  2  3  1  0  0  0
  3  4  2  0  0  0
  4  5  1  0  0  0
  5 22  1  0  0  0
 22 23  1  0  0  0
 23 24  1  0  0  0
 24 25  1  0  0  0
 25 26  2  0  0  0
 25 27  1  0  0  0
 23 29  1  0  0  0
 29 30  1  0  0  0
 30 31  2  0  0  0
 31 32  1  0  0  0
 32 33  2  0  0  0
 33 34  1  0  0  0
 34 35  2  0  0  0
 35 36  1  0  0  0
 36 37  2  0  0  0
 37 38  1  0  0  0
 38 39  2  0  0  0
  5  6  2  0  0  0
 15 11  2  0  0  0
  6  1  1  0  0  0
 21 16  1  0  0  0
 39 30  1  0  0  0
 38 33  1  0  0  0
 27 28  1  0  0  0
M  END
> <minimizedAffinity>
-9.63251

> <CNNscore>
0.1981713176

> <CNNaffinity>
6.3412122726

> <CNN_VS>
1.2566463947

> <CNNaffinity_variance>
0.4469822347

$$$$
[H]OC(=O)C([H])([H])N(C([H])([H])c1c([H])c([H])c([H])c(OC([H])([H])C([H])([H])c2nc(-c3c([H])c([H])c([H])c([H])c3[H])oc2C([H])([H])[H])c1[H])C([H])([H])c1c([H])c([H])c2c([H])c([H])c([H])c([H])c2c1[H]


 39 43  0  0  0  0  0  0  0  0999 V2000
  -91.1171   29.1411   -1.7403 C   0  0  0  0  0  0  0  0  0  0  0  0
  -90.4838   28.5953   -0.6597 C   0  0  0  0  0  0  0  0  0  0  0  0
  -89.4731   29.2900   -0.0389 C   0  0  0  0  0  0  0  0  0  0  0  0
  -89.0581   30.5338   -0.4582 C   0  0  0  0  0  0  0  0  0  0  0  0
  -89.6750   31.1118   -1.5429 C   0  0  0  0  0  0  0  0  0  0  0  0
  -90.6805   30.4099   -2.1535 C   0  0  0  0  0  0  0  0  0  0  0  0
  -92.1206   28.5244   -2.4118 O   0  0  0  0  0  0  0  0  0  0  0  0
  -93.3827   28.8847   -2.7747 C   0  0  0  0  0  0  0  0  0  0  0  0
  -93.5476   29.8285   -3.9194 C   0  0  0  0  0  0  0  0  0  0  0  0
  -94.3294   31.1430   -6.6597 C   0  0  0  0  0  0  0  0  0  0  0  0
  -94.4880   29.7145   -6.3322 C   0  0  0  0  0  0  0  0  0  0  0  0
  -94.9699   28.7700   -7.1084 O   0  0  0  0  0  0  0  0  0  0  0  0
  -94.9594   27.6199   -6.4820 C   0  0  0  0  0  0  0  0  0  0  0  0
  -94.4485   27.8512   -5.2587 N   0  0  0  0  0  0  0  0  0  0  0  0
  -94.1395   29.1413   -5.1168 C   0  0  0  0  0  0  0  0  0  0  0  0
  -95.4074   26.3309   -6.9911 C   0  0  0  0  0  0  0  0  0  0  0  0
  -96.6090   26.2153   -7.6582 C   0  0  0  0  0  0  0  0  0  0  0  0
  -97.0595   24.9941   -8.1525 C   0  0  0  0  0  0  0  0  0  0  0  0
  -96.2942   23.8642   -7.9768 C   0  0  0  0  0  0  0  0  0  0  0  0
  -95.1008   23.9530   -7.3198 C   0  0  0  0  0  0  0  0  0  0  0  0
  -94.6614   25.1862   -6.8291 C   0  0  0  0  0  0  0  0  0  0  0  0
  -89.2350   32.4351   -1.9991 C   0  0  0  0  0  0  0  0  0  0  0  0
  -87.8722   32.5433   -2.3955 N   0  0  0  0  0  0  0  0  0  0  0  0
  -87.7119   32.6938   -3.7975 C   0  0  0  0  0  0  0  0  0  0  0  0
  -88.0972   31.5340   -4.6124 C   0  0  0  0  0  0  0  0  0  0  0  0
  -87.5183   30.4356   -4.6598 O   0  0  0  0  0  0  0  0  0  0  0  0
  -89.2371   31.6634   -5.4299 O   0  0  0  0  0  0  0  0  0  0  0  0
  -89.1242   31.7188   -6.4322 H   0  0  0  0  0  0  0  0  0  0  0  0
  -87.1005   33.4269   -1.5733 C   0  0  0  0  0  0  0  0  0  0  0  0
  -85.9078   32.8512   -0.9595 C   0  0  0  0  0  0  0  0  0  0  0  0
  -84.6305   33.3537   -1.0533 C   0  0  0  0  0  0  0  0  0  0  0  0
  -83.5592   32.7265   -0.4358 C   0  0  0  0  0  0  0  0  0  0  0  0
  -83.7172   31.5733    0.3005 C   0  0  0  0  0  0  0  0  0  0  0  0
  -82.6282   30.9769    0.9001 C   0  0  0  0  0  0  0  0  0  0  0  0
  -82.7767   29.8203    1.6391 C   0  0  0  0  0  0  0  0  0  0  0  0
  -84.0439   29.2913    1.7520 C   0  0  0  0  0  0  0  0  0  0  0  0
  -85.1450   29.8970    1.1442 C   0  0  0  0  0  0  0  0  0  0  0  0
  -84.9924   31.0556    0.4050 C   0  0  0  0  0  0  0  0  0  0  0  0
  -86.0553   31.6835   -0.2114 C   0  0  0  0  0  0  0  0  0  0  0  0
 10 11  1  0  0  0
 11 12  1  0  0  0
 12 13  1  0  0  0
 13 16  1  0  0  0
 16 17  2  0  0  0
 17 18  1  0  0  0
 18 19  2  0  0  0
 19 20  1  0  0  0
 20 21  2  0  0  0
 13 14  2  0  0  0
 14 15  1  0  0  0
 15  9  1  0  0  0
  9  8  1  0  0  0
  8  7  1  0  0  0
  7  1  1  0  0  0
  1  2  2  0  0  0
  2  3  1  0  0  0
  3  4  2  0  0  0
  4  5  1  0  0  0
  5 22  1  0  0  0
 22 23  1  0  0  0
 23 24  1  0  0  0
 24 25  1  0  0  0
 25 26  2  0  0  0
 25 27  1  0  0  0
 23 29  1  0  0  0
 29 30  1  0  0  0
 30 31  2  0  0  0
 31 32  1  0  0  0
 32 33  2  0  0  0
 33 34  1  0  0  0
 34 35  2  0  0  0
 35 36  1  0  0  0
 36 37  2  0  0  0
 37 38  1  0  0  0
 38 39  2  0  0  0
  5  6  2  0  0  0
 15 11  2  0  0  0
  6  1  1  0  0  0
 21 16  1  0  0  0
 39 30  1  0  0  0
 38 33  1  0  0  0
 27 28  1  0  0  0
M  END
> <minimizedAffinity>
-9.06131

> <CNNscore>
0.1965223998

> <CNNaffinity>
5.8883829117

> <CNN_VS>
1.1571991444

> <CNNaffinity_variance>
0.2222401798

$$$$
[H]OC(=O)C([H])([H])N(C([H])([H])c1c([H])c([H])c([H])c(OC([H])([H])C([H])([H])c2nc(-c3c([H])c([H])c([H])c([H])c3[H])oc2C([H])([H])[H])c1[H])C([H])([H])c1c([H])c([H])c2c([H])c([H])c([H])c([H])c2c1[H]


 39 43  0  0  0  0  0  0  0  0999 V2000
  -91.1629   30.8428   -3.4377 C   0  0  0  0  0  0  0  0  0  0  0  0
  -92.3942   31.4222   -3.3158 C   0  0  0  0  0  0  0  0  0  0  0  0
  -93.5069   30.6316   -3.1536 C   0  0  0  0  0  0  0  0  0  0  0  0
  -93.4431   29.2573   -3.1056 C   0  0  0  0  0  0  0  0  0  0  0  0
  -92.2188   28.6423   -3.2249 C   0  0  0  0  0  0  0  0  0  0  0  0
  -91.1173   29.4405   -3.3866 C   0  0  0  0  0  0  0  0  0  0  0  0
  -90.0160   31.5466   -3.6028 O   0  0  0  0  0  0  0  0  0  0  0  0
  -88.8436   31.6274   -2.9148 C   0  0  0  0  0  0  0  0  0  0  0  0
  -88.9019   31.7252   -1.4264 C   0  0  0  0  0  0  0  0  0  0  0  0
  -86.5927   33.8493   -1.4911 C   0  0  0  0  0  0  0  0  0  0  0  0
  -86.5096   32.5307   -0.8373 C   0  0  0  0  0  0  0  0  0  0  0  0
  -85.4840   32.0298   -0.1861 O   0  0  0  0  0  0  0  0  0  0  0  0
  -85.7721   30.8329    0.2606 C   0  0  0  0  0  0  0  0  0  0  0  0
  -87.0338   30.5696   -0.1264 N   0  0  0  0  0  0  0  0  0  0  0  0
  -87.5365   31.5968   -0.8137 C   0  0  0  0  0  0  0  0  0  0  0  0
  -84.9110   29.9439    1.0285 C   0  0  0  0  0  0  0  0  0  0  0  0
  -85.4280   28.8293    1.6552 C   0  0  0  0  0  0  0  0  0  0  0  0
  -84.6257   27.9655    2.3960 C   0  0  0  0  0  0  0  0  0  0  0  0
  -83.2786   28.2200    2.5139 C   0  0  0  0  0  0  0  0  0  0  0  0
  -82.7432   29.3170    1.9025 C   0  0  0  0  0  0  0  0  0  0  0  0
  -83.5613   30.1752    1.1618 C   0  0  0  0  0  0  0  0  0  0  0  0
  -92.1429   27.1777   -3.1800 C   0  0  0  0  0  0  0  0  0  0  0  0
  -92.1064   26.5886   -1.8847 N   0  0  0  0  0  0  0  0  0  0  0  0
  -92.8056   25.3556   -1.8155 C   0  0  0  0  0  0  0  0  0  0  0  0
  -92.2834   24.2768   -2.6647 C   0  0  0  0  0  0  0  0  0  0  0  0
  -91.2537   23.6099   -2.4671 O   0  0  0  0  0  0  0  0  0  0  0  0
  -93.0119   23.9526   -3.8259 O   0  0  0  0  0  0  0  0  0  0  0  0
  -92.6329   24.1915   -4.7313 H   0  0  0  0  0  0  0  0  0  0  0  0
  -90.8100   26.6144   -1.2755 C   0  0  0  0  0  0  0  0  0  0  0  0
  -90.7646   27.0632    0.1129 C   0  0  0  0  0  0  0  0  0  0  0  0
  -91.0662   28.3284    0.5612 C   0  0  0  0  0  0  0  0  0  0  0  0
  -90.9858   28.6577    1.9056 C   0  0  0  0  0  0  0  0  0  0  0  0
  -90.6020   27.7396    2.8579 C   0  0  0  0  0  0  0  0  0  0  0  0
  -90.5329   28.1035    4.1860 C   0  0  0  0  0  0  0  0  0  0  0  0
  -90.1480   27.1904    5.1473 C   0  0  0  0  0  0  0  0  0  0  0  0
  -89.8387   25.9142    4.7304 C   0  0  0  0  0  0  0  0  0  0  0  0
  -89.9096   25.5480    3.3852 C   0  0  0  0  0  0  0  0  0  0  0  0
  -90.2958   26.4653    2.4251 C   0  0  0  0  0  0  0  0  0  0  0  0
  -90.3773   26.1424    1.0861 C   0  0  0  0  0  0  0  0  0  0  0  0
 10 11  1  0  0  0
 11 12  1  0  0  0
 12 13  1  0  0  0
 13 16  1  0  0  0
 16 17  2  0  0  0
 17 18  1  0  0  0
 18 19  2  0  0  0
 19 20  1  0  0  0
 20 21  2  0  0  0
 13 14  2  0  0  0
 14 15  1  0  0  0
 15  9  1  0  0  0
  9  8  1  0  0  0
  8  7  1  0  0  0
  7  1  1  0  0  0
  1  2  2  0  0  0
  2  3  1  0  0  0
  3  4  2  0  0  0
  4  5  1  0  0  0
  5 22  1  0  0  0
 22 23  1  0  0  0
 23 24  1  0  0  0
 24 25  1  0  0  0
 25 26  2  0  0  0
 25 27  1  0  0  0
 23 29  1  0  0  0
 29 30  1  0  0  0
 30 31  2  0  0  0
 31 32  1  0  0  0
 32 33  2  0  0  0
 33 34  1  0  0  0
 34 35  2  0  0  0
 35 36  1  0  0  0
 36 37  2  0  0  0
 37 38  1  0  0  0
 38 39  2  0  0  0
  5  6  2  0  0  0
 15 11  2  0  0  0
  6  1  1  0  0  0
 21 16  1  0  0  0
 39 30  1  0  0  0
 38 33  1  0  0  0
 27 28  1  0  0  0
M  END
> <minimizedAffinity>
-8.82530

> <CNNscore>
0.1869820952

> <CNNaffinity>
6.4938306808

> <CNN_VS>
1.2142300606

> <CNNaffinity_variance>
0.5112743974

$$$$
[H]OC(=O)C([H])([H])N(C([H])([H])c1c([H])c([H])c([H])c(OC([H])([H])C([H])([H])c2nc(-c3c([H])c([H])c([H])c([H])c3[H])oc2C([H])([H])[H])c1[H])C([H])([H])c1c([H])c([H])c2c([H])c([H])c([H])c([H])c2c1[H]


 39 43  0  0  0  0  0  0  0  0999 V2000
  -91.3363   29.6578   -1.7705 C   0  0  0  0  0  0  0  0  0  0  0  0
  -91.0992   29.4289   -0.4445 C   0  0  0  0  0  0  0  0  0  0  0  0
  -90.2549   30.2614    0.2509 C   0  0  0  0  0  0  0  0  0  0  0  0
  -89.6233   31.3368   -0.3318 C   0  0  0  0  0  0  0  0  0  0  0  0
  -89.8406   31.5954   -1.6650 C   0  0  0  0  0  0  0  0  0  0  0  0
  -90.6836   30.7587   -2.3476 C   0  0  0  0  0  0  0  0  0  0  0  0
  -92.1517   28.8861   -2.5306 O   0  0  0  0  0  0  0  0  0  0  0  0
  -92.0022   28.2190   -3.7083 C   0  0  0  0  0  0  0  0  0  0  0  0
  -92.1478   26.7334   -3.7034 C   0  0  0  0  0  0  0  0  0  0  0  0
  -92.1382   23.7157   -2.8419 C   0  0  0  0  0  0  0  0  0  0  0  0
  -91.3085   24.7709   -2.2327 C   0  0  0  0  0  0  0  0  0  0  0  0
  -90.4449   24.6355   -1.2515 O   0  0  0  0  0  0  0  0  0  0  0  0
  -89.8918   25.7894   -0.9726 C   0  0  0  0  0  0  0  0  0  0  0  0
  -90.4309   26.6896   -1.8152 N   0  0  0  0  0  0  0  0  0  0  0  0
  -91.3192   26.1039   -2.6201 C   0  0  0  0  0  0  0  0  0  0  0  0
  -88.8876   26.0664    0.0453 C   0  0  0  0  0  0  0  0  0  0  0  0
  -89.2511   26.2481    1.3633 C   0  0  0  0  0  0  0  0  0  0  0  0
  -88.3101   26.5155    2.3540 C   0  0  0  0  0  0  0  0  0  0  0  0
  -86.9777   26.6037    2.0218 C   0  0  0  0  0  0  0  0  0  0  0  0
  -86.5929   26.4275    0.7239 C   0  0  0  0  0  0  0  0  0  0  0  0
  -87.5493   26.1595   -0.2600 C   0  0  0  0  0  0  0  0  0  0  0  0
  -89.1671   32.7366   -2.2948 C   0  0  0  0  0  0  0  0  0  0  0  0
  -87.7660   32.6024   -2.5064 N   0  0  0  0  0  0  0  0  0  0  0  0
  -87.4152   32.5427   -3.8803 C   0  0  0  0  0  0  0  0  0  0  0  0
  -87.9228   31.3790   -4.6190 C   0  0  0  0  0  0  0  0  0  0  0  0
  -87.6068   30.1908   -4.4390 O   0  0  0  0  0  0  0  0  0  0  0  0
  -88.8644   31.6164   -5.6394 O   0  0  0  0  0  0  0  0  0  0  0  0
  -88.5893   31.4997   -6.6043 H   0  0  0  0  0  0  0  0  0  0  0  0
  -86.9730   33.4719   -1.6895 C   0  0  0  0  0  0  0  0  0  0  0  0
  -85.8409   32.8523   -1.0073 C   0  0  0  0  0  0  0  0  0  0  0  0
  -84.5441   33.3117   -1.0175 C   0  0  0  0  0  0  0  0  0  0  0  0
  -83.5351   32.6448   -0.3396 C   0  0  0  0  0  0  0  0  0  0  0  0
  -83.7774   31.4933    0.3763 C   0  0  0  0  0  0  0  0  0  0  0  0
  -82.7486   30.8567    1.0376 C   0  0  0  0  0  0  0  0  0  0  0  0
  -82.9817   29.7015    1.7566 C   0  0  0  0  0  0  0  0  0  0  0  0
  -84.2705   29.2152    1.7862 C   0  0  0  0  0  0  0  0  0  0  0  0
  -85.3106   29.8615    1.1161 C   0  0  0  0  0  0  0  0  0  0  0  0
  -85.0733   31.0186    0.3971 C   0  0  0  0  0  0  0  0  0  0  0  0
  -86.0739   31.6859   -0.2792 C   0  0  0  0  0  0  0  0  0  0  0  0
 10 11  1  0  0  0
 11 12  1  0  0  0
 12 13  1  0  0  0
 13 16  1  0  0  0
 16 17  2  0  0  0
 17 18  1  0  0  0
 18 19  2  0  0  0
 19 20  1  0  0  0
 20 21  2  0  0  0
 13 14  2  0  0  0
 14 15  1  0  0  0
 15  9  1  0  0  0
  9  8  1  0  0  0
  8  7  1  0  0  0
  7  1  1  0  0  0
  1  2  2  0  0  0
  2  3  1  0  0  0
  3  4  2  0  0  0
  4  5  1  0  0  0
  5 22  1  0  0  0
 22 23  1  0  0  0
 23 24  1  0  0  0
 24 25  1  0  0  0
 25 26  2  0  0  0
 25 27  1  0  0  0
 23 29  1  0  0  0
 29 30  1  0  0  0
 30 31  2  0  0  0
 31 32  1  0  0  0
 32 33  2  0  0  0
 33 34  1  0  0  0
 34 35  2  0  0  0
 35 36  1  0  0  0
 36 37  2  0  0  0
 37 38  1  0  0  0
 38 39  2  0  0  0
  5  6  2  0  0  0
 15 11  2  0  0  0
  6  1  1  0  0  0
 21 16  1  0  0  0
 39 30  1  0  0  0
 38 33  1  0  0  0
 27 28  1  0  0  0
M  END
> <minimizedAffinity>
-9.73347

> <CNNscore>
0.1690327674

> <CNNaffinity>
5.9891457558

> <CNN_VS>
1.0123618841

> <CNNaffinity_variance>
1.7439811230

$$$$
[H]OC(=O)C([H])([H])N(C([H])([H])c1c([H])c([H])c([H])c(OC([H])([H])C([H])([H])c2nc(-c3c([H])c([H])c([H])c([H])c3[H])oc2C([H])([H])[H])c1[H])C([H])([H])c1c([H])c([H])c2c([H])c([H])c([H])c([H])c2c1[H]


 39 43  0  0  0  0  0  0  0  0999 V2000
  -86.6681   28.2134    0.9872 C   0  0  0  0  0  0  0  0  0  0  0  0
  -86.2058   28.2375   -0.2982 C   0  0  0  0  0  0  0  0  0  0  0  0
  -87.0910   28.1232   -1.3436 C   0  0  0  0  0  0  0  0  0  0  0  0
  -88.4479   27.9837   -1.1582 C   0  0  0  0  0  0  0  0  0  0  0  0
  -88.9462   27.9560    0.1233 C   0  0  0  0  0  0  0  0  0  0  0  0
  -88.0544   28.0703    1.1569 C   0  0  0  0  0  0  0  0  0  0  0  0
  -85.8655   28.3174    2.0749 O   0  0  0  0  0  0  0  0  0  0  0  0
  -84.5894   28.7480    2.2763 C   0  0  0  0  0  0  0  0  0  0  0  0
  -84.3709   30.1906    2.5918 C   0  0  0  0  0  0  0  0  0  0  0  0
  -82.2640   31.4587    0.6421 C   0  0  0  0  0  0  0  0  0  0  0  0
  -83.7245   31.6264    0.5328 C   0  0  0  0  0  0  0  0  0  0  0  0
  -84.3796   32.3157   -0.3741 O   0  0  0  0  0  0  0  0  0  0  0  0
  -85.6689   32.2391   -0.1572 C   0  0  0  0  0  0  0  0  0  0  0  0
  -85.8317   31.4678    0.9336 N   0  0  0  0  0  0  0  0  0  0  0  0
  -84.6496   31.0617    1.4003 C   0  0  0  0  0  0  0  0  0  0  0  0
  -86.7351   32.8585   -0.9323 C   0  0  0  0  0  0  0  0  0  0  0  0
  -88.0577   32.5690   -0.6692 C   0  0  0  0  0  0  0  0  0  0  0  0
  -89.0944   33.1469   -1.3971 C   0  0  0  0  0  0  0  0  0  0  0  0
  -88.8045   34.0325   -2.4095 C   0  0  0  0  0  0  0  0  0  0  0  0
  -87.5030   34.3352   -2.6890 C   0  0  0  0  0  0  0  0  0  0  0  0
  -86.4726   33.7471   -1.9494 C   0  0  0  0  0  0  0  0  0  0  0  0
  -90.3908   27.8024    0.3295 C   0  0  0  0  0  0  0  0  0  0  0  0
  -91.1745   27.5904   -0.8397 N   0  0  0  0  0  0  0  0  0  0  0  0
  -91.6434   26.2563   -0.9595 C   0  0  0  0  0  0  0  0  0  0  0  0
  -91.2158   25.5351   -2.1655 C   0  0  0  0  0  0  0  0  0  0  0  0
  -90.3204   24.6765   -2.2379 O   0  0  0  0  0  0  0  0  0  0  0  0
  -91.8777   25.8356   -3.3721 O   0  0  0  0  0  0  0  0  0  0  0  0
  -91.3874   26.3471   -4.0920 H   0  0  0  0  0  0  0  0  0  0  0  0
  -92.1376   28.6225   -1.0837 C   0  0  0  0  0  0  0  0  0  0  0  0
  -91.7755   29.6084   -2.0976 C   0  0  0  0  0  0  0  0  0  0  0  0
  -92.6293   30.5167   -2.6797 C   0  0  0  0  0  0  0  0  0  0  0  0
  -92.1869   31.4113   -3.6422 C   0  0  0  0  0  0  0  0  0  0  0  0
  -90.8758   31.4373   -4.0634 C   0  0  0  0  0  0  0  0  0  0  0  0
  -90.4722   32.3410   -5.0235 C   0  0  0  0  0  0  0  0  0  0  0  0
  -89.1605   32.3737   -5.4527 C   0  0  0  0  0  0  0  0  0  0  0  0
  -88.2801   31.4761   -4.8892 C   0  0  0  0  0  0  0  0  0  0  0  0
  -88.6910   30.5623   -3.9172 C   0  0  0  0  0  0  0  0  0  0  0  0
  -90.0057   30.5327   -3.4895 C   0  0  0  0  0  0  0  0  0  0  0  0
  -90.4508   29.6444   -2.5320 C   0  0  0  0  0  0  0  0  0  0  0  0
 10 11  1  0  0  0
 11 12  1  0  0  0
 12 13  1  0  0  0
 13 16  1  0  0  0
 16 17  2  0  0  0
 17 18  1  0  0  0
 18 19  2  0  0  0
 19 20  1  0  0  0
 20 21  2  0  0  0
 13 14  2  0  0  0
 14 15  1  0  0  0
 15  9  1  0  0  0
  9  8  1  0  0  0
  8  7  1  0  0  0
  7  1  1  0  0  0
  1  2  2  0  0  0
  2  3  1  0  0  0
  3  4  2  0  0  0
  4  5  1  0  0  0
  5 22  1  0  0  0
 22 23  1  0  0  0
 23 24  1  0  0  0
 24 25  1  0  0  0
 25 26  2  0  0  0
 25 27  1  0  0  0
 23 29  1  0  0  0
 29 30  1  0  0  0
 30 31  2  0  0  0
 31 32  1  0  0  0
 32 33  2  0  0  0
 33 34  1  0  0  0
 34 35  2  0  0  0
 35 36  1  0  0  0
 36 37  2  0  0  0
 37 38  1  0  0  0
 38 39  2  0  0  0
  5  6  2  0  0  0
 15 11  2  0  0  0
  6  1  1  0  0  0
 21 16  1  0  0  0
 39 30  1  0  0  0
 38 33  1  0  0  0
 27 28  1  0  0  0
M  END
> <minimizedAffinity>
-7.91375

> <CNNscore>
0.1397837102

> <CNNaffinity>
6.5920362473

> <CNN_VS>
0.9214592576

> <CNNaffinity_variance>
0.3928220570

$$$$
[H]OC(=O)C([H])([H])N(C([H])([H])c1c([H])c([H])c([H])c(OC([H])([H])C([H])([H])c2nc(-c3c([H])c([H])c([H])c([H])c3[H])oc2C([H])([H])[H])c1[H])C([H])([H])c1c([H])c([H])c2c([H])c([H])c([H])c([H])c2c1[H]


 39 43  0  0  0  0  0  0  0  0999 V2000
  -88.9077   28.8429   -0.1568 C   0  0  0  0  0  0  0  0  0  0  0  0
  -88.3024   28.0844   -1.1185 C   0  0  0  0  0  0  0  0  0  0  0  0
  -87.6264   28.6981   -2.1461 C   0  0  0  0  0  0  0  0  0  0  0  0
  -87.5250   30.0664   -2.2579 C   0  0  0  0  0  0  0  0  0  0  0  0
  -88.1227   30.8592   -1.3062 C   0  0  0  0  0  0  0  0  0  0  0  0
  -88.7938   30.2362   -0.2873 C   0  0  0  0  0  0  0  0  0  0  0  0
  -89.5957   28.3202    0.8879 O   0  0  0  0  0  0  0  0  0  0  0  0
  -89.2397   27.6636    2.0266 C   0  0  0  0  0  0  0  0  0  0  0  0
  -90.3225   27.1068    2.8902 C   0  0  0  0  0  0  0  0  0  0  0  0
  -91.2083   24.2638    1.8998 C   0  0  0  0  0  0  0  0  0  0  0  0
  -90.3166   24.5194    3.0455 C   0  0  0  0  0  0  0  0  0  0  0  0
  -89.7532   23.6271    3.8285 O   0  0  0  0  0  0  0  0  0  0  0  0
  -89.0255   24.2208    4.7413 C   0  0  0  0  0  0  0  0  0  0  0  0
  -89.1359   25.5440    4.5226 N   0  0  0  0  0  0  0  0  0  0  0  0
  -89.9299   25.7810    3.4769 C   0  0  0  0  0  0  0  0  0  0  0  0
  -88.2416   23.5915    5.7953 C   0  0  0  0  0  0  0  0  0  0  0  0
  -87.9783   22.2380    5.7656 C   0  0  0  0  0  0  0  0  0  0  0  0
  -87.2330   21.6133    6.7621 C   0  0  0  0  0  0  0  0  0  0  0  0
  -86.7404   22.3557    7.8106 C   0  0  0  0  0  0  0  0  0  0  0  0
  -86.9876   23.6973    7.8623 C   0  0  0  0  0  0  0  0  0  0  0  0
  -87.7375   24.3107    6.8543 C   0  0  0  0  0  0  0  0  0  0  0  0
  -88.0235   32.3185   -1.4211 C   0  0  0  0  0  0  0  0  0  0  0  0
  -86.7152   32.8481   -1.6050 N   0  0  0  0  0  0  0  0  0  0  0  0
  -86.6388   33.7818   -2.6710 C   0  0  0  0  0  0  0  0  0  0  0  0
  -87.5567   33.5460   -3.7933 C   0  0  0  0  0  0  0  0  0  0  0  0
  -88.5705   34.2075   -4.0738 O   0  0  0  0  0  0  0  0  0  0  0  0
  -87.2737   32.4631   -4.6486 O   0  0  0  0  0  0  0  0  0  0  0  0
  -87.8656   31.6449   -4.6244 H   0  0  0  0  0  0  0  0  0  0  0  0
  -86.0703   33.2297   -0.3840 C   0  0  0  0  0  0  0  0  0  0  0  0
  -85.0882   32.2867    0.1425 C   0  0  0  0  0  0  0  0  0  0  0  0
  -83.7238   32.3744   -0.0108 C   0  0  0  0  0  0  0  0  0  0  0  0
  -82.8728   31.4198    0.5248 C   0  0  0  0  0  0  0  0  0  0  0  0
  -83.3468   30.3392    1.2353 C   0  0  0  0  0  0  0  0  0  0  0  0
  -82.4702   29.4093    1.7530 C   0  0  0  0  0  0  0  0  0  0  0  0
  -82.9362   28.3224    2.4653 C   0  0  0  0  0  0  0  0  0  0  0  0
  -84.2983   28.2055    2.6363 C   0  0  0  0  0  0  0  0  0  0  0  0
  -85.1839   29.1484    2.1114 C   0  0  0  0  0  0  0  0  0  0  0  0
  -84.7134   30.2359    1.3986 C   0  0  0  0  0  0  0  0  0  0  0  0
  -85.5562   31.1885    0.8636 C   0  0  0  0  0  0  0  0  0  0  0  0
 10 11  1  0  0  0
 11 12  1  0  0  0
 12 13  1  0  0  0
 13 16  1  0  0  0
 16 17  2  0  0  0
 17 18  1  0  0  0
 18 19  2  0  0  0
 19 20  1  0  0  0
 20 21  2  0  0  0
 13 14  2  0  0  0
 14 15  1  0  0  0
 15  9  1  0  0  0
  9  8  1  0  0  0
  8  7  1  0  0  0
  7  1  1  0  0  0
  1  2  2  0  0  0
  2  3  1  0  0  0
  3  4  2  0  0  0
  4  5  1  0  0  0
  5 22  1  0  0  0
 22 23  1  0  0  0
 23 24  1  0  0  0
 24 25  1  0  0  0
 25 26  2  0  0  0
 25 27  1  0  0  0
 23 29  1  0  0  0
 29 30  1  0  0  0
 30 31  2  0  0  0
 31 32  1  0  0  0
 32 33  2  0  0  0
 33 34  1  0  0  0
 34 35  2  0  0  0
 35 36  1  0  0  0
 36 37  2  0  0  0
 37 38  1  0  0  0
 38 39  2  0  0  0
  5  6  2  0  0  0
 15 11  2  0  0  0
  6  1  1  0  0  0
 21 16  1  0  0  0
 39 30  1  0  0  0
 38 33  1  0  0  0
 27 28  1  0  0  0
M  END
> <minimizedAffinity>
-10.52475

> <CNNscore>
0.1339683533

> <CNNaffinity>
6.3788919449

> <CNN_VS>
0.8545696735

> <CNNaffinity_variance>
0.7818000913

$$$$
[H]c1nc([H])c(N([H])C2([H])C([H])([H])N(C(=O)c3c(C([H])([H])[H])noc3C([H])([H])[H])C2([H])[H])c([H])c1N1C(=O)c2c([H])c([H])c(Cl)c([H])c2C([H])([H])C1([H])[H]


 33 37  0  0  0  0  0  0  0  0999 V2000
  -88.4937   31.0249   -3.0462 C   0  0  0  0  0  0  0  0  0  0  0  0
  -89.4966   31.1416   -4.0199 C   0  0  0  0  0  0  0  0  0  0  0  0
  -90.5401   30.2985   -4.0146 N   0  0  0  0  0  0  0  0  0  0  0  0
  -90.6592   29.3206   -3.0832 C   0  0  0  0  0  0  0  0  0  0  0  0
  -89.7116   29.1450   -2.0939 C   0  0  0  0  0  0  0  0  0  0  0  0
  -88.6290   30.0273   -2.1077 C   0  0  0  0  0  0  0  0  0  0  0  0
  -89.8340   28.1332   -1.1080 N   0  0  0  0  0  0  0  0  0  0  0  0
  -89.4901   26.7805   -1.4874 C   0  0  0  0  0  0  0  0  0  0  0  0
  -88.8652   25.9988   -0.3823 C   0  0  0  0  0  0  0  0  0  0  0  0
  -89.3067   26.4117    0.9644 C   0  0  0  0  0  0  0  0  0  0  0  0
  -89.0075   25.5298    2.0008 C   0  0  0  0  0  0  0  0  0  0  0  0
  -89.3867   25.8202    3.3156 C   0  0  0  0  0  0  0  0  0  0  0  0
  -89.0147   24.7208    4.6311 Cl  0  0  0  0  0  0  0  0  0  0  0  0
  -90.0684   26.9874    3.6273 C   0  0  0  0  0  0  0  0  0  0  0  0
  -90.3489   27.8420    2.5680 C   0  0  0  0  0  0  0  0  0  0  0  0
  -89.9725   27.5511    1.2760 C   0  0  0  0  0  0  0  0  0  0  0  0
  -90.2746   28.4959    0.1994 C   0  0  0  0  0  0  0  0  0  0  0  0
  -90.8882   29.5581    0.4447 O   0  0  0  0  0  0  0  0  0  0  0  0
  -87.4154   31.9357   -3.0793 N   0  0  0  0  0  0  0  0  0  0  0  0
  -86.6568   31.7823   -3.7868 H   0  0  0  0  0  0  0  0  0  0  0  0
  -85.3369   31.6470    0.2505 C   0  0  0  0  0  0  0  0  0  0  0  0
  -84.1023   31.9456   -0.1659 O   0  0  0  0  0  0  0  0  0  0  0  0
  -86.2886   32.3617   -0.4870 N   0  0  0  0  0  0  0  0  0  0  0  0
  -86.0375   33.3602   -1.5855 C   0  0  0  0  0  0  0  0  0  0  0  0
  -87.3843   33.0475   -2.1474 C   0  0  0  0  0  0  0  0  0  0  0  0
  -87.6596   32.6106   -0.7056 C   0  0  0  0  0  0  0  0  0  0  0  0
  -86.2127   28.7054   -0.1561 C   0  0  0  0  0  0  0  0  0  0  0  0
  -85.8111   29.3651    1.1188 C   0  0  0  0  0  0  0  0  0  0  0  0
  -85.7643   28.7482    2.3081 N   0  0  0  0  0  0  0  0  0  0  0  0
  -85.3850   29.5719    3.1920 O   0  0  0  0  0  0  0  0  0  0  0  0
  -85.1593   30.7768    2.6398 C   0  0  0  0  0  0  0  0  0  0  0  0
  -84.7077   31.9209    3.4343 C   0  0  0  0  0  0  0  0  0  0  0  0
  -85.4163   30.7049    1.3124 C   0  0  0  0  0  0  0  0  0  0  0  0
 27 28  1  0  0  0
 28 29  2  0  0  0
 29 30  1  0  0  0
 30 31  1  0  0  0
 31 32  1  0  0  0
 31 33  2  0  0  0
 33 21  1  0  0  0
 21 22  2  0  0  0
 21 23  1  0  0  0
 23 24  1  0  0  0
 24 25  1  0  0  0
 25 19  1  0  0  0
 19  1  1  0  0  0
  1  2  2  0  0  0
  2  3  1  0  0  0
  3  4  2  0  0  0
  4  5  1  0  0  0
  5  7  1  0  0  0
  7  8  1  0  0  0
  8  9  1  0  0  0
  9 10  1  0  0  0
 10 11  2  0  0  0
 11 12  1  0  0  0
 12 13  1  0  0  0
 12 14  2  0  0  0
 14 15  1  0  0  0
 15 16  2  0  0  0
 16 17  1  0  0  0
 17 18  2  0  0  0
  5  6  2  0  0  0
 25 26  1  0  0  0
 33 28  1  0  0  0
 26 23  1  0  0  0
  6  1  1  0  0  0
 17  7  1  0  0  0
 16 10  1  0  0  0
 19 20  1  0  0  0
M  END
> <minimizedAffinity>
-9.12710

> <CNNscore>
0.3299191892

> <CNNaffinity>
7.0452857018

> <CNN_VS>
2.3243749142

> <CNNaffinity_variance>
0.1298028082

$$$$
[H]c1nc([H])c(N([H])C2([H])C([H])([H])N(C(=O)c3c(C([H])([H])[H])noc3C([H])([H])[H])C2([H])[H])c([H])c1N1C(=O)c2c([H])c([H])c(Cl)c([H])c2C([H])([H])C1([H])[H]


 33 37  0  0  0  0  0  0  0  0999 V2000
  -89.0333   33.9142   -3.1222 C   0  0  0  0  0  0  0  0  0  0  0  0
  -88.0694   34.6009   -3.8752 C   0  0  0  0  0  0  0  0  0  0  0  0
  -86.7658   34.4498   -3.5965 N   0  0  0  0  0  0  0  0  0  0  0  0
  -86.3421   33.6414   -2.5940 C   0  0  0  0  0  0  0  0  0  0  0  0
  -87.2326   32.9336   -1.8106 C   0  0  0  0  0  0  0  0  0  0  0  0
  -88.5873   33.0975   -2.1081 C   0  0  0  0  0  0  0  0  0  0  0  0
  -86.7984   32.0760   -0.7682 N   0  0  0  0  0  0  0  0  0  0  0  0
  -87.7085   31.0428   -0.3253 C   0  0  0  0  0  0  0  0  0  0  0  0
  -87.0194   29.7856    0.0838 C   0  0  0  0  0  0  0  0  0  0  0  0
  -85.6587   29.9968    0.6154 C   0  0  0  0  0  0  0  0  0  0  0  0
  -85.0957   28.9184    1.2947 C   0  0  0  0  0  0  0  0  0  0  0  0
  -83.8131   29.0136    1.8449 C   0  0  0  0  0  0  0  0  0  0  0  0
  -83.0902   27.6634    2.7006 Cl  0  0  0  0  0  0  0  0  0  0  0  0
  -83.0662   30.1771    1.7330 C   0  0  0  0  0  0  0  0  0  0  0  0
  -83.6605   31.2307    1.0489 C   0  0  0  0  0  0  0  0  0  0  0  0
  -84.9229   31.1308    0.5089 C   0  0  0  0  0  0  0  0  0  0  0  0
  -85.4947   32.2640   -0.2204 C   0  0  0  0  0  0  0  0  0  0  0  0
  -84.8489   33.3287   -0.3404 O   0  0  0  0  0  0  0  0  0  0  0  0
  -90.3948   34.0922   -3.4506 N   0  0  0  0  0  0  0  0  0  0  0  0
  -91.0170   34.5652   -2.7515 H   0  0  0  0  0  0  0  0  0  0  0  0
  -92.5586   36.4832   -5.7072 C   0  0  0  0  0  0  0  0  0  0  0  0
  -91.6199   37.2080   -6.3239 O   0  0  0  0  0  0  0  0  0  0  0  0
  -92.0969   35.1825   -5.4719 N   0  0  0  0  0  0  0  0  0  0  0  0
  -90.7617   34.6000   -5.8521 C   0  0  0  0  0  0  0  0  0  0  0  0
  -90.8930   33.6241   -4.7306 C   0  0  0  0  0  0  0  0  0  0  0  0
  -92.3842   33.9164   -4.9207 C   0  0  0  0  0  0  0  0  0  0  0  0
  -94.7391   36.9787   -7.8485 C   0  0  0  0  0  0  0  0  0  0  0  0
  -94.7689   37.3790   -6.4130 C   0  0  0  0  0  0  0  0  0  0  0  0
  -95.7875   38.0256   -5.8287 N   0  0  0  0  0  0  0  0  0  0  0  0
  -95.5147   38.2191   -4.6073 O   0  0  0  0  0  0  0  0  0  0  0  0
  -94.3041   37.7126   -4.3145 C   0  0  0  0  0  0  0  0  0  0  0  0
  -93.7351   37.7942   -2.9677 C   0  0  0  0  0  0  0  0  0  0  0  0
  -93.7780   37.1615   -5.4337 C   0  0  0  0  0  0  0  0  0  0  0  0
 27 28  1  0  0  0
 28 29  2  0  0  0
 29 30  1  0  0  0
 30 31  1  0  0  0
 31 32  1  0  0  0
 31 33  2  0  0  0
 33 21  1  0  0  0
 21 22  2  0  0  0
 21 23  1  0  0  0
 23 24  1  0  0  0
 24 25  1  0  0  0
 25 19  1  0  0  0
 19  1  1  0  0  0
  1  2  2  0  0  0
  2  3  1  0  0  0
  3  4  2  0  0  0
  4  5  1  0  0  0
  5  7  1  0  0  0
  7  8  1  0  0  0
  8  9  1  0  0  0
  9 10  1  0  0  0
 10 11  2  0  0  0
 11 12  1  0  0  0
 12 13  1  0  0  0
 12 14  2  0  0  0
 14 15  1  0  0  0
 15 16  2  0  0  0
 16 17  1  0  0  0
 17 18  2  0  0  0
  5  6  2  0  0  0
 25 26  1  0  0  0
 33 28  1  0  0  0
 26 23  1  0  0  0
  6  1  1  0  0  0
 17  7  1  0  0  0
 16 10  1  0  0  0
 19 20  1  0  0  0
M  END
> <minimizedAffinity>
-8.51159

> <CNNscore>
0.3249589503

> <CNNaffinity>
6.3529310226

> <CNN_VS>
2.0644416809

> <CNNaffinity_variance>
0.1699625254

$$$$
[H]c1nc([H])c(N([H])C2([H])C([H])([H])N(C(=O)c3c(C([H])([H])[H])noc3C([H])([H])[H])C2([H])[H])c([H])c1N1C(=O)c2c([H])c([H])c(Cl)c([H])c2C([H])([H])C1([H])[H]


 33 37  0  0  0  0  0  0  0  0999 V2000
  -90.1543   30.9739   -0.7376 C   0  0  0  0  0  0  0  0  0  0  0  0
  -91.1135   30.8339   -1.7516 C   0  0  0  0  0  0  0  0  0  0  0  0
  -91.8425   29.7109   -1.8369 N   0  0  0  0  0  0  0  0  0  0  0  0
  -91.6799   28.6895   -0.9604 C   0  0  0  0  0  0  0  0  0  0  0  0
  -90.7554   28.7556    0.0636 C   0  0  0  0  0  0  0  0  0  0  0  0
  -90.0012   29.9284    0.1442 C   0  0  0  0  0  0  0  0  0  0  0  0
  -90.5870   27.6977    0.9926 N   0  0  0  0  0  0  0  0  0  0  0  0
  -90.2117   26.4010    0.4732 C   0  0  0  0  0  0  0  0  0  0  0  0
  -89.3101   25.6393    1.3842 C   0  0  0  0  0  0  0  0  0  0  0  0
  -89.5029   25.9528    2.8137 C   0  0  0  0  0  0  0  0  0  0  0  0
  -88.9243   25.0627    3.7161 C   0  0  0  0  0  0  0  0  0  0  0  0
  -89.0521   25.2617    5.0948 C   0  0  0  0  0  0  0  0  0  0  0  0
  -88.3270   24.1509    6.2430 Cl  0  0  0  0  0  0  0  0  0  0  0  0
  -89.7546   26.3439    5.6041 C   0  0  0  0  0  0  0  0  0  0  0  0
  -90.3173   27.2096    4.6739 C   0  0  0  0  0  0  0  0  0  0  0  0
  -90.1875   27.0089    3.3181 C   0  0  0  0  0  0  0  0  0  0  0  0
  -90.7825   27.9629    2.3806 C   0  0  0  0  0  0  0  0  0  0  0  0
  -91.4230   28.9501    2.8052 O   0  0  0  0  0  0  0  0  0  0  0  0
  -89.4125   32.1736   -0.6752 N   0  0  0  0  0  0  0  0  0  0  0  0
  -89.6763   32.8838    0.0497 H   0  0  0  0  0  0  0  0  0  0  0  0
  -86.1381   30.0089   -0.3857 C   0  0  0  0  0  0  0  0  0  0  0  0
  -86.4838   28.8938   -1.0367 O   0  0  0  0  0  0  0  0  0  0  0  0
  -86.7687   31.1227   -0.9534 N   0  0  0  0  0  0  0  0  0  0  0  0
  -87.6931   31.1473   -2.1414 C   0  0  0  0  0  0  0  0  0  0  0  0
  -88.3174   32.3909   -1.6021 C   0  0  0  0  0  0  0  0  0  0  0  0
  -86.9663   32.5179   -0.8922 C   0  0  0  0  0  0  0  0  0  0  0  0
  -86.7962   28.2769    2.0947 C   0  0  0  0  0  0  0  0  0  0  0  0
  -85.5430   29.0376    1.8253 C   0  0  0  0  0  0  0  0  0  0  0  0
  -84.4854   29.0697    2.6484 N   0  0  0  0  0  0  0  0  0  0  0  0
  -83.5815   29.7964    2.1401 O   0  0  0  0  0  0  0  0  0  0  0  0
  -83.9879   30.2848    0.9551 C   0  0  0  0  0  0  0  0  0  0  0  0
  -83.1371   31.1582    0.1442 C   0  0  0  0  0  0  0  0  0  0  0  0
  -85.2384   29.8323    0.7010 C   0  0  0  0  0  0  0  0  0  0  0  0
 27 28  1  0  0  0
 28 29  2  0  0  0
 29 30  1  0  0  0
 30 31  1  0  0  0
 31 32  1  0  0  0
 31 33  2  0  0  0
 33 21  1  0  0  0
 21 22  2  0  0  0
 21 23  1  0  0  0
 23 24  1  0  0  0
 24 25  1  0  0  0
 25 19  1  0  0  0
 19  1  1  0  0  0
  1  2  2  0  0  0
  2  3  1  0  0  0
  3  4  2  0  0  0
  4  5  1  0  0  0
  5  7  1  0  0  0
  7  8  1  0  0  0
  8  9  1  0  0  0
  9 10  1  0  0  0
 10 11  2  0  0  0
 11 12  1  0  0  0
 12 13  1  0  0  0
 12 14  2  0  0  0
 14 15  1  0  0  0
 15 16  2  0  0  0
 16 17  1  0  0  0
 17 18  2  0  0  0
  5  6  2  0  0  0
 25 26  1  0  0  0
 33 28  1  0  0  0
 26 23  1  0  0  0
  6  1  1  0  0  0
 17  7  1  0  0  0
 16 10  1  0  0  0
 19 20  1  0  0  0
M  END
> <minimizedAffinity>
-9.16874

> <CNNscore>
0.2335748971

> <CNNaffinity>
6.6901726723

> <CNN_VS>
1.5626564026

> <CNNaffinity_variance>
0.2734157443

$$$$
[H]c1nc([H])c(N([H])C2([H])C([H])([H])N(C(=O)c3c(C([H])([H])[H])noc3C([H])([H])[H])C2([H])[H])c([H])c1N1C(=O)c2c([H])c([H])c(Cl)c([H])c2C([H])([H])C1([H])[H]


 33 37  0  0  0  0  0  0  0  0999 V2000
  -89.1861   34.3524   -3.2878 C   0  0  0  0  0  0  0  0  0  0  0  0
  -88.2274   34.9752   -4.1006 C   0  0  0  0  0  0  0  0  0  0  0  0
  -86.9206   34.7744   -3.8733 N   0  0  0  0  0  0  0  0  0  0  0  0
  -86.4886   33.9756   -2.8666 C   0  0  0  0  0  0  0  0  0  0  0  0
  -87.3736   33.3293   -2.0259 C   0  0  0  0  0  0  0  0  0  0  0  0
  -88.7317   33.5446   -2.2703 C   0  0  0  0  0  0  0  0  0  0  0  0
  -86.9314   32.4819   -0.9784 N   0  0  0  0  0  0  0  0  0  0  0  0
  -87.8299   31.4396   -0.5331 C   0  0  0  0  0  0  0  0  0  0  0  0
  -87.1263   30.1929   -0.1164 C   0  0  0  0  0  0  0  0  0  0  0  0
  -85.7697   30.4234    0.4176 C   0  0  0  0  0  0  0  0  0  0  0  0
  -85.1951   29.3552    1.1033 C   0  0  0  0  0  0  0  0  0  0  0  0
  -83.9152   29.4688    1.6563 C   0  0  0  0  0  0  0  0  0  0  0  0
  -83.1779   28.1316    2.5201 Cl  0  0  0  0  0  0  0  0  0  0  0  0
  -83.1824   30.6409    1.5408 C   0  0  0  0  0  0  0  0  0  0  0  0
  -83.7880   31.6839    0.8504 C   0  0  0  0  0  0  0  0  0  0  0  0
  -85.0477   31.5659    0.3077 C   0  0  0  0  0  0  0  0  0  0  0  0
  -85.6316   32.6886   -0.4283 C   0  0  0  0  0  0  0  0  0  0  0  0
  -84.9987   33.7606   -0.5517 O   0  0  0  0  0  0  0  0  0  0  0  0
  -90.5517   34.5814   -3.5631 N   0  0  0  0  0  0  0  0  0  0  0  0
  -91.1783   34.8622   -2.7706 H   0  0  0  0  0  0  0  0  0  0  0  0
  -92.6684   31.4056   -4.5251 C   0  0  0  0  0  0  0  0  0  0  0  0
  -93.8899   31.7479   -4.1039 O   0  0  0  0  0  0  0  0  0  0  0  0
  -91.9691   32.5348   -4.9682 N   0  0  0  0  0  0  0  0  0  0  0  0
  -92.4610   33.9567   -5.0205 C   0  0  0  0  0  0  0  0  0  0  0  0
  -91.0481   34.4261   -4.9178 C   0  0  0  0  0  0  0  0  0  0  0  0
  -90.7588   33.0358   -5.4914 C   0  0  0  0  0  0  0  0  0  0  0  0
  -90.7297   30.2399   -2.4114 C   0  0  0  0  0  0  0  0  0  0  0  0
  -91.4732   29.4974   -3.4686 C   0  0  0  0  0  0  0  0  0  0  0  0
  -91.4079   28.1708   -3.6499 N   0  0  0  0  0  0  0  0  0  0  0  0
  -92.1521   27.8440   -4.6209 O   0  0  0  0  0  0  0  0  0  0  0  0
  -92.7509   28.9321   -5.1357 C   0  0  0  0  0  0  0  0  0  0  0  0
  -93.6716   28.8457   -6.2711 C   0  0  0  0  0  0  0  0  0  0  0  0
  -92.3533   30.0219   -4.4376 C   0  0  0  0  0  0  0  0  0  0  0  0
 27 28  1  0  0  0
 28 29  2  0  0  0
 29 30  1  0  0  0
 30 31  1  0  0  0
 31 32  1  0  0  0
 31 33  2  0  0  0
 33 21  1  0  0  0
 21 22  2  0  0  0
 21 23  1  0  0  0
 23 24  1  0  0  0
 24 25  1  0  0  0
 25 19  1  0  0  0
 19  1  1  0  0  0
  1  2  2  0  0  0
  2  3  1  0  0  0
  3  4  2  0  0  0
  4  5  1  0  0  0
  5  7  1  0  0  0
  7  8  1  0  0  0
  8  9  1  0  0  0
  9 10  1  0  0  0
 10 11  2  0  0  0
 11 12  1  0  0  0
 12 13  1  0  0  0
 12 14  2  0  0  0
 14 15  1  0  0  0
 15 16  2  0  0  0
 16 17  1  0  0  0
 17 18  2  0  0  0
  5  6  2  0  0  0
 25 26  1  0  0  0
 33 28  1  0  0  0
 26 23  1  0  0  0
  6  1  1  0  0  0
 17  7  1  0  0  0
 16 10  1  0  0  0
 19 20  1  0  0  0
M  END
> <minimizedAffinity>
-9.81105

> <CNNscore>
0.2076660544

> <CNNaffinity>
6.2281727791

> <CNN_VS>
1.2933800220

> <CNNaffinity_variance>
0.3772279918

$$$$
[H]c1nc([H])c(N([H])C2([H])C([H])([H])N(C(=O)c3c(C([H])([H])[H])noc3C([H])([H])[H])C2([H])[H])c([H])c1N1C(=O)c2c([H])c([H])c(Cl)c([H])c2C([H])([H])C1([H])[H]


 33 37  0  0  0  0  0  0  0  0999 V2000
  -88.2099   32.9457   -3.9568 C   0  0  0  0  0  0  0  0  0  0  0  0
  -87.7200   34.2567   -4.0515 C   0  0  0  0  0  0  0  0  0  0  0  0
  -86.8934   34.7352   -3.1094 N   0  0  0  0  0  0  0  0  0  0  0  0
  -86.5093   33.9804   -2.0507 C   0  0  0  0  0  0  0  0  0  0  0  0
  -86.9506   32.6814   -1.8908 C   0  0  0  0  0  0  0  0  0  0  0  0
  -87.8108   32.1923   -2.8764 C   0  0  0  0  0  0  0  0  0  0  0  0
  -86.5444   31.8801   -0.7937 N   0  0  0  0  0  0  0  0  0  0  0  0
  -87.5172   30.9705   -0.2297 C   0  0  0  0  0  0  0  0  0  0  0  0
  -86.9178   29.6972    0.2628 C   0  0  0  0  0  0  0  0  0  0  0  0
  -85.5225   29.8339    0.7245 C   0  0  0  0  0  0  0  0  0  0  0  0
  -85.0221   28.7718    1.4748 C   0  0  0  0  0  0  0  0  0  0  0  0
  -83.7135   28.8017    1.9681 C   0  0  0  0  0  0  0  0  0  0  0  0
  -83.0689   27.4708    2.9120 Cl  0  0  0  0  0  0  0  0  0  0  0  0
  -82.8780   29.8827    1.7280 C   0  0  0  0  0  0  0  0  0  0  0  0
  -83.4118   30.9224    0.9763 C   0  0  0  0  0  0  0  0  0  0  0  0
  -84.7004   30.8870    0.4929 C   0  0  0  0  0  0  0  0  0  0  0  0
  -85.2071   32.0001   -0.3118 C   0  0  0  0  0  0  0  0  0  0  0  0
  -84.4809   32.9911   -0.5476 O   0  0  0  0  0  0  0  0  0  0  0  0
  -89.0710   32.4751   -4.9719 N   0  0  0  0  0  0  0  0  0  0  0  0
  -88.6610   31.8909   -5.7401 H   0  0  0  0  0  0  0  0  0  0  0  0
  -90.3925   35.6931   -6.8127 C   0  0  0  0  0  0  0  0  0  0  0  0
  -90.5211   35.2604   -8.0709 O   0  0  0  0  0  0  0  0  0  0  0  0
  -90.6611   34.6579   -5.9091 N   0  0  0  0  0  0  0  0  0  0  0  0
  -91.0685   33.2441   -6.2281 C   0  0  0  0  0  0  0  0  0  0  0  0
  -90.4833   32.8053   -4.9272 C   0  0  0  0  0  0  0  0  0  0  0  0
  -90.7303   34.2701   -4.5547 C   0  0  0  0  0  0  0  0  0  0  0  0
  -87.4709   36.6951   -7.0250 C   0  0  0  0  0  0  0  0  0  0  0  0
  -88.6934   37.5089   -6.7702 C   0  0  0  0  0  0  0  0  0  0  0  0
  -88.6956   38.8386   -6.6002 N   0  0  0  0  0  0  0  0  0  0  0  0
  -89.8829   39.2338   -6.4064 O   0  0  0  0  0  0  0  0  0  0  0  0
  -90.7317   38.1915   -6.4376 C   0  0  0  0  0  0  0  0  0  0  0  0
  -92.1734   38.3602   -6.2443 C   0  0  0  0  0  0  0  0  0  0  0  0
  -90.0259   37.0591   -6.6670 C   0  0  0  0  0  0  0  0  0  0  0  0
 27 28  1  0  0  0
 28 29  2  0  0  0
 29 30  1  0  0  0
 30 31  1  0  0  0
 31 32  1  0  0  0
 31 33  2  0  0  0
 33 21  1  0  0  0
 21 22  2  0  0  0
 21 23  1  0  0  0
 23 24  1  0  0  0
 24 25  1  0  0  0
 25 19  1  0  0  0
 19  1  1  0  0  0
  1  2  2  0  0  0
  2  3  1  0  0  0
  3  4  2  0  0  0
  4  5  1  0  0  0
  5  7  1  0  0  0
  7  8  1  0  0  0
  8  9  1  0  0  0
  9 10  1  0  0  0
 10 11  2  0  0  0
 11 12  1  0  0  0
 12 13  1  0  0  0
 12 14  2  0  0  0
 14 15  1  0  0  0
 15 16  2  0  0  0
 16 17  1  0  0  0
 17 18  2  0  0  0
  5  6  2  0  0  0
 25 26  1  0  0  0
 33 28  1  0  0  0
 26 23  1  0  0  0
  6  1  1  0  0  0
 17  7  1  0  0  0
 16 10  1  0  0  0
 19 20  1  0  0  0
M  END
> <minimizedAffinity>
-9.00981

> <CNNscore>
0.2069285512

> <CNNaffinity>
6.5284218788

> <CNN_VS>
1.3509168625

> <CNNaffinity_variance>
0.1892178059

$$$$
[H]c1nc([H])c(N([H])C2([H])C([H])([H])N(C(=O)c3c(C([H])([H])[H])noc3C([H])([H])[H])C2([H])[H])c([H])c1N1C(=O)c2c([H])c([H])c(Cl)c([H])c2C([H])([H])C1([H])[H]


 33 37  0  0  0  0  0  0  0  0999 V2000
  -89.4780   28.5916   -0.7252 C   0  0  0  0  0  0  0  0  0  0  0  0
  -90.2223   27.4473   -1.0480 C   0  0  0  0  0  0  0  0  0  0  0  0
  -90.9451   27.4121   -2.1776 N   0  0  0  0  0  0  0  0  0  0  0  0
  -90.9804   28.4640   -3.0322 C   0  0  0  0  0  0  0  0  0  0  0  0
  -90.2734   29.6236   -2.7810 C   0  0  0  0  0  0  0  0  0  0  0  0
  -89.5241   29.6509   -1.6027 C   0  0  0  0  0  0  0  0  0  0  0  0
  -90.2941   30.7241   -3.6750 N   0  0  0  0  0  0  0  0  0  0  0  0
  -91.5647   31.0888   -4.2619 C   0  0  0  0  0  0  0  0  0  0  0  0
  -91.7191   32.5573   -4.4685 C   0  0  0  0  0  0  0  0  0  0  0  0
  -90.4450   33.2635   -4.7070 C   0  0  0  0  0  0  0  0  0  0  0  0
  -90.5510   34.5582   -5.2108 C   0  0  0  0  0  0  0  0  0  0  0  0
  -89.4052   35.3144   -5.4798 C   0  0  0  0  0  0  0  0  0  0  0  0
  -89.5230   36.9467   -6.1119 Cl  0  0  0  0  0  0  0  0  0  0  0  0
  -88.1357   34.8026   -5.2555 C   0  0  0  0  0  0  0  0  0  0  0  0
  -88.0699   33.5088   -4.7527 C   0  0  0  0  0  0  0  0  0  0  0  0
  -89.2011   32.7696   -4.4893 C   0  0  0  0  0  0  0  0  0  0  0  0
  -89.0764   31.4182   -3.9405 C   0  0  0  0  0  0  0  0  0  0  0  0
  -87.9468   30.9251   -3.7260 O   0  0  0  0  0  0  0  0  0  0  0  0
  -88.7233   28.5880    0.4680 N   0  0  0  0  0  0  0  0  0  0  0  0
  -89.1220   29.0696    1.3097 H   0  0  0  0  0  0  0  0  0  0  0  0
  -85.4386   30.7126    0.9018 C   0  0  0  0  0  0  0  0  0  0  0  0
  -85.3949   30.8892    2.2261 O   0  0  0  0  0  0  0  0  0  0  0  0
  -86.0074   29.4712    0.5920 N   0  0  0  0  0  0  0  0  0  0  0  0
  -86.4974   28.4209    1.5529 C   0  0  0  0  0  0  0  0  0  0  0  0
  -87.4324   27.9258    0.5004 C   0  0  0  0  0  0  0  0  0  0  0  0
  -86.4117   28.5873   -0.4301 C   0  0  0  0  0  0  0  0  0  0  0  0
  -87.2190   32.6136   -0.7720 C   0  0  0  0  0  0  0  0  0  0  0  0
  -85.7352   32.6462   -0.6341 C   0  0  0  0  0  0  0  0  0  0  0  0
  -84.9391   33.5434   -1.2327 N   0  0  0  0  0  0  0  0  0  0  0  0
  -83.7349   33.3100   -0.9181 O   0  0  0  0  0  0  0  0  0  0  0  0
  -83.6656   32.2487   -0.0955 C   0  0  0  0  0  0  0  0  0  0  0  0
  -82.3899   31.7563    0.4283 C   0  0  0  0  0  0  0  0  0  0  0  0
  -84.9175   31.7810    0.1217 C   0  0  0  0  0  0  0  0  0  0  0  0
 27 28  1  0  0  0
 28 29  2  0  0  0
 29 30  1  0  0  0
 30 31  1  0  0  0
 31 32  1  0  0  0
 31 33  2  0  0  0
 33 21  1  0  0  0
 21 22  2  0  0  0
 21 23  1  0  0  0
 23 24  1  0  0  0
 24 25  1  0  0  0
 25 19  1  0  0  0
 19  1  1  0  0  0
  1  2  2  0  0  0
  2  3  1  0  0  0
  3  4  2  0  0  0
  4  5  1  0  0  0
  5  7  1  0  0  0
  7  8  1  0  0  0
  8  9  1  0  0  0
  9 10  1  0  0  0
 10 11  2  0  0  0
 11 12  1  0  0  0
 12 13  1  0  0  0
 12 14  2  0  0  0
 14 15  1  0  0  0
 15 16  2  0  0  0
 16 17  1  0  0  0
 17 18  2  0  0  0
  5  6  2  0  0  0
 25 26  1  0  0  0
 33 28  1  0  0  0
 26 23  1  0  0  0
  6  1  1  0  0  0
 17  7  1  0  0  0
 16 10  1  0  0  0
 19 20  1  0  0  0
M  END
> <minimizedAffinity>
-8.67994

> <CNNscore>
0.2023814023

> <CNNaffinity>
6.7242441177

> <CNN_VS>
1.3608618975

> <CNNaffinity_variance>
0.0830106586

$$$$
[H]c1nc([H])c(N([H])C2([H])C([H])([H])N(C(=O)c3c(C([H])([H])[H])noc3C([H])([H])[H])C2([H])[H])c([H])c1N1C(=O)c2c([H])c([H])c(Cl)c([H])c2C([H])([H])C1([H])[H]


 33 37  0  0  0  0  0  0  0  0999 V2000
  -86.4333   30.2603    0.5323 C   0  0  0  0  0  0  0  0  0  0  0  0
  -85.2727   30.8583    1.0453 C   0  0  0  0  0  0  0  0  0  0  0  0
  -84.8887   32.0665    0.6064 N   0  0  0  0  0  0  0  0  0  0  0  0
  -85.5975   32.7401   -0.3326 C   0  0  0  0  0  0  0  0  0  0  0  0
  -86.7502   32.2148   -0.8832 C   0  0  0  0  0  0  0  0  0  0  0  0
  -87.1418   30.9567   -0.4202 C   0  0  0  0  0  0  0  0  0  0  0  0
  -87.5050   32.9174   -1.8566 N   0  0  0  0  0  0  0  0  0  0  0  0
  -86.8865   34.0619   -2.4887 C   0  0  0  0  0  0  0  0  0  0  0  0
  -87.2779   34.2294   -3.9176 C   0  0  0  0  0  0  0  0  0  0  0  0
  -88.6268   33.7184   -4.2306 C   0  0  0  0  0  0  0  0  0  0  0  0
  -89.1637   34.1231   -5.4510 C   0  0  0  0  0  0  0  0  0  0  0  0
  -90.4388   33.7025   -5.8434 C   0  0  0  0  0  0  0  0  0  0  0  0
  -91.1268   34.2018   -7.3780 Cl  0  0  0  0  0  0  0  0  0  0  0  0
  -91.2044   32.8750   -5.0352 C   0  0  0  0  0  0  0  0  0  0  0  0
  -90.6359   32.4923   -3.8263 C   0  0  0  0  0  0  0  0  0  0  0  0
  -89.3801   32.9090   -3.4458 C   0  0  0  0  0  0  0  0  0  0  0  0
  -88.8192   32.4597   -2.1705 C   0  0  0  0  0  0  0  0  0  0  0  0
  -89.4821   31.7131   -1.4167 O   0  0  0  0  0  0  0  0  0  0  0  0
  -86.8097   28.9919    1.0247 N   0  0  0  0  0  0  0  0  0  0  0  0
  -86.8639   28.8580    2.0633 H   0  0  0  0  0  0  0  0  0  0  0  0
  -90.0787   26.8495    1.4887 C   0  0  0  0  0  0  0  0  0  0  0  0
  -91.0028   27.6244    0.9122 O   0  0  0  0  0  0  0  0  0  0  0  0
  -88.8457   26.9937    0.8411 N   0  0  0  0  0  0  0  0  0  0  0  0
  -88.5318   27.8544   -0.3536 C   0  0  0  0  0  0  0  0  0  0  0  0
  -87.1098   27.9194    0.0945 C   0  0  0  0  0  0  0  0  0  0  0  0
  -87.4871   26.6164    0.8053 C   0  0  0  0  0  0  0  0  0  0  0  0
  -90.2480   27.9518    4.3768 C   0  0  0  0  0  0  0  0  0  0  0  0
  -90.6077   26.5845    3.9044 C   0  0  0  0  0  0  0  0  0  0  0  0
  -91.0801   25.6106    4.6951 N   0  0  0  0  0  0  0  0  0  0  0  0
  -91.2919   24.5733    4.0003 O   0  0  0  0  0  0  0  0  0  0  0  0
  -90.9733   24.8011    2.7141 C   0  0  0  0  0  0  0  0  0  0  0  0
  -91.1219   23.7703    1.6847 C   0  0  0  0  0  0  0  0  0  0  0  0
  -90.5283   26.0740    2.5924 C   0  0  0  0  0  0  0  0  0  0  0  0
 27 28  1  0  0  0
 28 29  2  0  0  0
 29 30  1  0  0  0
 30 31  1  0  0  0
 31 32  1  0  0  0
 31 33  2  0  0  0
 33 21  1  0  0  0
 21 22  2  0  0  0
 21 23  1  0  0  0
 23 24  1  0  0  0
 24 25  1  0  0  0
 25 19  1  0  0  0
 19  1  1  0  0  0
  1  2  2  0  0  0
  2  3  1  0  0  0
  3  4  2  0  0  0
  4  5  1  0  0  0
  5  7  1  0  0  0
  7  8  1  0  0  0
  8  9  1  0  0  0
  9 10  1  0  0  0
 10 11  2  0  0  0
 11 12  1  0  0  0
 12 13  1  0  0  0
 12 14  2  0  0  0
 14 15  1  0  0  0
 15 16  2  0  0  0
 16 17  1  0  0  0
 17 18  2  0  0  0
  5  6  2  0  0  0
 25 26  1  0  0  0
 33 28  1  0  0  0
 26 23  1  0  0  0
  6  1  1  0  0  0
 17  7  1  0  0  0
 16 10  1  0  0  0
 19 20  1  0  0  0
M  END
> <minimizedAffinity>
-9.14481

> <CNNscore>
0.1939154714

> <CNNaffinity>
6.4146981239

> <CNN_VS>
1.2439092398

> <CNNaffinity_variance>
0.3409257233

$$$$
[H]c1nc([H])c(N([H])C2([H])C([H])([H])N(C(=O)c3c(C([H])([H])[H])noc3C([H])([H])[H])C2([H])[H])c([H])c1N1C(=O)c2c([H])c([H])c(Cl)c([H])c2C([H])([H])C1([H])[H]


 33 37  0  0  0  0  0  0  0  0999 V2000
  -87.6462   32.5260   -3.3111 C   0  0  0  0  0  0  0  0  0  0  0  0
  -88.3869   33.2029   -4.2913 C   0  0  0  0  0  0  0  0  0  0  0  0
  -89.6409   32.8174   -4.5718 N   0  0  0  0  0  0  0  0  0  0  0  0
  -90.2259   31.7775   -3.9280 C   0  0  0  0  0  0  0  0  0  0  0  0
  -89.5587   31.0642   -2.9514 C   0  0  0  0  0  0  0  0  0  0  0  0
  -88.2539   31.4727   -2.6665 C   0  0  0  0  0  0  0  0  0  0  0  0
  -90.1666   29.9833   -2.2638 N   0  0  0  0  0  0  0  0  0  0  0  0
  -90.7561   28.9282   -3.0584 C   0  0  0  0  0  0  0  0  0  0  0  0
  -90.6231   27.5787   -2.4387 C   0  0  0  0  0  0  0  0  0  0  0  0
  -90.5801   27.6012   -0.9634 C   0  0  0  0  0  0  0  0  0  0  0  0
  -90.7717   26.3753   -0.3295 C   0  0  0  0  0  0  0  0  0  0  0  0
  -90.7572   26.2847    1.0664 C   0  0  0  0  0  0  0  0  0  0  0  0
  -90.9944   24.7479    1.8785 Cl  0  0  0  0  0  0  0  0  0  0  0  0
  -90.5535   27.4050    1.8585 C   0  0  0  0  0  0  0  0  0  0  0  0
  -90.3661   28.6093    1.1909 C   0  0  0  0  0  0  0  0  0  0  0  0
  -90.3807   28.6921   -0.1832 C   0  0  0  0  0  0  0  0  0  0  0  0
  -90.1574   29.9826   -0.8373 C   0  0  0  0  0  0  0  0  0  0  0  0
  -89.9706   31.0135   -0.1536 O   0  0  0  0  0  0  0  0  0  0  0  0
  -86.3328   32.9661   -3.0380 N   0  0  0  0  0  0  0  0  0  0  0  0
  -85.5846   32.7663   -3.7450 H   0  0  0  0  0  0  0  0  0  0  0  0
  -85.0959   30.9823    0.1284 C   0  0  0  0  0  0  0  0  0  0  0  0
  -83.7866   30.8628   -0.1126 O   0  0  0  0  0  0  0  0  0  0  0  0
  -85.5814   32.1881   -0.3919 N   0  0  0  0  0  0  0  0  0  0  0  0
  -84.8015   33.2591   -1.1070 C   0  0  0  0  0  0  0  0  0  0  0  0
  -86.0541   33.6755   -1.8032 C   0  0  0  0  0  0  0  0  0  0  0  0
  -86.7086   33.0133   -0.5872 C   0  0  0  0  0  0  0  0  0  0  0  0
  -86.7122   28.7362   -1.2600 C   0  0  0  0  0  0  0  0  0  0  0  0
  -86.4225   28.8795    0.1951 C   0  0  0  0  0  0  0  0  0  0  0  0
  -86.8309   28.0171    1.1366 N   0  0  0  0  0  0  0  0  0  0  0  0
  -86.4251   28.4113    2.2695 O   0  0  0  0  0  0  0  0  0  0  0  0
  -85.7268   29.5532    2.1427 C   0  0  0  0  0  0  0  0  0  0  0  0
  -85.1366   30.2328    3.2977 C   0  0  0  0  0  0  0  0  0  0  0  0
  -85.6920   29.9019    0.8349 C   0  0  0  0  0  0  0  0  0  0  0  0
 27 28  1  0  0  0
 28 29  2  0  0  0
 29 30  1  0  0  0
 30 31  1  0  0  0
 31 32  1  0  0  0
 31 33  2  0  0  0
 33 21  1  0  0  0
 21 22  2  0  0  0
 21 23  1  0  0  0
 23 24  1  0  0  0
 24 25  1  0  0  0
 25 19  1  0  0  0
 19  1  1  0  0  0
  1  2  2  0  0  0
  2  3  1  0  0  0
  3  4  2  0  0  0
  4  5  1  0  0  0
  5  7  1  0  0  0
  7  8  1  0  0  0
  8  9  1  0  0  0
  9 10  1  0  0  0
 10 11  2  0  0  0
 11 12  1  0  0  0
 12 13  1  0  0  0
 12 14  2  0  0  0
 14 15  1  0  0  0
 15 16  2  0  0  0
 16 17  1  0  0  0
 17 18  2  0  0  0
  5  6  2  0  0  0
 25 26  1  0  0  0
 33 28  1  0  0  0
 26 23  1  0  0  0
  6  1  1  0  0  0
 17  7  1  0  0  0
 16 10  1  0  0  0
 19 20  1  0  0  0
M  END
> <minimizedAffinity>
-8.48129

> <CNNscore>
0.1878696531

> <CNNaffinity>
6.4186887741

> <CNN_VS>
1.2058768272

> <CNNaffinity_variance>
0.6496209502

$$$$
[H]c1nc([H])c(N([H])C2([H])C([H])([H])N(C(=O)c3c(C([H])([H])[H])noc3C([H])([H])[H])C2([H])[H])c([H])c1N1C(=O)c2c([H])c([H])c(Cl)c([H])c2C([H])([H])C1([H])[H]


 33 37  0  0  0  0  0  0  0  0999 V2000
  -89.3855   33.9799   -3.3619 C   0  0  0  0  0  0  0  0  0  0  0  0
  -88.4719   34.7265   -4.1205 C   0  0  0  0  0  0  0  0  0  0  0  0
  -87.1566   34.6301   -3.8744 N   0  0  0  0  0  0  0  0  0  0  0  0
  -86.6731   33.8210   -2.8999 C   0  0  0  0  0  0  0  0  0  0  0  0
  -87.5118   33.0561   -2.1129 C   0  0  0  0  0  0  0  0  0  0  0  0
  -88.8791   33.1633   -2.3766 C   0  0  0  0  0  0  0  0  0  0  0  0
  -87.0146   32.1975   -1.0999 N   0  0  0  0  0  0  0  0  0  0  0  0
  -87.7306   30.9654   -0.8526 C   0  0  0  0  0  0  0  0  0  0  0  0
  -86.8402   29.8327   -0.4689 C   0  0  0  0  0  0  0  0  0  0  0  0
  -85.6118   30.2512    0.2344 C   0  0  0  0  0  0  0  0  0  0  0  0
  -84.9078   29.2402    0.8853 C   0  0  0  0  0  0  0  0  0  0  0  0
  -83.7333   29.5284    1.5884 C   0  0  0  0  0  0  0  0  0  0  0  0
  -82.8349   28.2656    2.4106 Cl  0  0  0  0  0  0  0  0  0  0  0  0
  -83.2358   30.8212    1.6601 C   0  0  0  0  0  0  0  0  0  0  0  0
  -83.9647   31.8024    0.9988 C   0  0  0  0  0  0  0  0  0  0  0  0
  -85.1196   31.5126    0.3078 C   0  0  0  0  0  0  0  0  0  0  0  0
  -85.8385   32.5805   -0.3892 C   0  0  0  0  0  0  0  0  0  0  0  0
  -85.4182   33.7580   -0.3455 O   0  0  0  0  0  0  0  0  0  0  0  0
  -90.7610   34.1016   -3.6560 N   0  0  0  0  0  0  0  0  0  0  0  0
  -91.4525   33.8798   -2.8996 H   0  0  0  0  0  0  0  0  0  0  0  0
  -93.6796   32.2061   -5.4945 C   0  0  0  0  0  0  0  0  0  0  0  0
  -94.7628   32.7755   -4.9566 O   0  0  0  0  0  0  0  0  0  0  0  0
  -92.6339   33.1327   -5.5860 N   0  0  0  0  0  0  0  0  0  0  0  0
  -92.6557   34.5835   -5.1848 C   0  0  0  0  0  0  0  0  0  0  0  0
  -91.1787   34.5261   -4.9793 C   0  0  0  0  0  0  0  0  0  0  0  0
  -91.2925   33.3559   -5.9606 C   0  0  0  0  0  0  0  0  0  0  0  0
  -95.5444   31.2146   -7.7583 C   0  0  0  0  0  0  0  0  0  0  0  0
  -94.6637   30.3914   -6.8817 C   0  0  0  0  0  0  0  0  0  0  0  0
  -94.5480   29.0583   -6.9630 N   0  0  0  0  0  0  0  0  0  0  0  0
  -93.7244   28.6557   -6.0894 O   0  0  0  0  0  0  0  0  0  0  0  0
  -93.2492   29.6961   -5.3827 C   0  0  0  0  0  0  0  0  0  0  0  0
  -92.2746   29.5197   -4.3042 C   0  0  0  0  0  0  0  0  0  0  0  0
  -93.8162   30.8351   -5.8458 C   0  0  0  0  0  0  0  0  0  0  0  0
 27 28  1  0  0  0
 28 29  2  0  0  0
 29 30  1  0  0  0
 30 31  1  0  0  0
 31 32  1  0  0  0
 31 33  2  0  0  0
 33 21  1  0  0  0
 21 22  2  0  0  0
 21 23  1  0  0  0
 23 24  1  0  0  0
 24 25  1  0  0  0
 25 19  1  0  0  0
 19  1  1  0  0  0
  1  2  2  0  0  0
  2  3  1  0  0  0
  3  4  2  0  0  0
  4  5  1  0  0  0
  5  7  1  0  0  0
  7  8  1  0  0  0
  8  9  1  0  0  0
  9 10  1  0  0  0
 10 11  2  0  0  0
 11 12  1  0  0  0
 12 13  1  0  0  0
 12 14  2  0  0  0
 14 15  1  0  0  0
 15 16  2  0  0  0
 16 17  1  0  0  0
 17 18  2  0  0  0
  5  6  2  0  0  0
 25 26  1  0  0  0
 33 28  1  0  0  0
 26 23  1  0  0  0
  6  1  1  0  0  0
 17  7  1  0  0  0
 16 10  1  0  0  0
 19 20  1  0  0  0
M  END
> <minimizedAffinity>
-8.93171

> <CNNscore>
0.1697109789

> <CNNaffinity>
5.9301834106

> <CNN_VS>
1.0064172745

> <CNNaffinity_variance>
0.2186606377

$$$$
[H]c1c([H])c([H])c2c(nc(SC([H])([H])C(=O)N3C(=O)C([H])([H])C([H])([H])C3([H])[H])n2C([H])([H])[H])c1[H]


 20 22  0  0  0  0  0  0  0  0999 V2000
  -83.0155   28.3899    2.3519 C   0  0  0  0  0  0  0  0  0  0  0  0
  -84.0926   29.0621    1.6202 N   0  0  0  0  0  0  0  0  0  0  0  0
  -85.3560   28.7075    1.4319 C   0  0  0  0  0  0  0  0  0  0  0  0
  -85.9583   29.7044    0.7197 N   0  0  0  0  0  0  0  0  0  0  0  0
  -85.0774   30.6868    0.4566 C   0  0  0  0  0  0  0  0  0  0  0  0
  -85.1900   31.8874   -0.2207 C   0  0  0  0  0  0  0  0  0  0  0  0
  -84.0945   32.7047   -0.3330 C   0  0  0  0  0  0  0  0  0  0  0  0
  -82.8949   32.2994    0.2411 C   0  0  0  0  0  0  0  0  0  0  0  0
  -82.7867   31.1107    0.9107 C   0  0  0  0  0  0  0  0  0  0  0  0
  -83.8951   30.2746    1.0294 C   0  0  0  0  0  0  0  0  0  0  0  0
  -86.1857   27.2471    1.9100 S   0  0  0  0  0  0  0  0  0  0  0  0
  -87.5194   26.6804    0.9073 C   0  0  0  0  0  0  0  0  0  0  0  0
  -88.6820   27.5195    0.7052 C   0  0  0  0  0  0  0  0  0  0  0  0
  -89.0008   28.0564   -0.3549 O   0  0  0  0  0  0  0  0  0  0  0  0
  -89.5312   27.7369    1.8547 N   0  0  0  0  0  0  0  0  0  0  0  0
  -89.3170   27.1886    3.1644 C   0  0  0  0  0  0  0  0  0  0  0  0
  -90.6672   27.3385    3.8748 C   0  0  0  0  0  0  0  0  0  0  0  0
  -91.1909   28.6210    3.2865 C   0  0  0  0  0  0  0  0  0  0  0  0
  -90.7238   28.5289    1.8820 C   0  0  0  0  0  0  0  0  0  0  0  0
  -91.2430   29.0354    0.8548 O   0  0  0  0  0  0  0  0  0  0  0  0
  1  2  1  0  0  0
  2  3  1  0  0  0
  3 11  1  0  0  0
 11 12  1  0  0  0
 12 13  1  0  0  0
 13 14  2  0  0  0
 13 15  1  0  0  0
 15 16  1  0  0  0
 16 17  1  0  0  0
 17 18  1  0  0  0
 18 19  1  0  0  0
 19 20  2  0  0  0
  3  4  2  0  0  0
  4  5  1  0  0  0
  5  6  2  0  0  0
  6  7  1  0  0  0
  7  8  2  0  0  0
  8  9  1  0  0  0
  9 10  2  0  0  0
 10  2  1  0  0  0
 19 15  1  0  0  0
 10  5  1  0  0  0
M  END
> <minimizedAffinity>
-7.53912

> <CNNscore>
0.6293635368

> <CNNaffinity>
5.6765460968

> <CNN_VS>
3.5726110935

> <CNNaffinity_variance>
0.1535851955

$$$$
[H]c1c([H])c([H])c2c(nc(SC([H])([H])C(=O)N3C(=O)C([H])([H])C([H])([H])C3([H])[H])n2C([H])([H])[H])c1[H]


 20 22  0  0  0  0  0  0  0  0999 V2000
  -82.7550   29.1052    1.9874 C   0  0  0  0  0  0  0  0  0  0  0  0
  -83.9766   29.6445    1.3838 N   0  0  0  0  0  0  0  0  0  0  0  0
  -85.2152   29.1721    1.3807 C   0  0  0  0  0  0  0  0  0  0  0  0
  -85.9957   30.0768    0.7205 N   0  0  0  0  0  0  0  0  0  0  0  0
  -85.2522   31.1185    0.3054 C   0  0  0  0  0  0  0  0  0  0  0  0
  -85.5640   32.2705   -0.3938 C   0  0  0  0  0  0  0  0  0  0  0  0
  -84.5734   33.1740   -0.6825 C   0  0  0  0  0  0  0  0  0  0  0  0
  -83.2765   32.9034   -0.2612 C   0  0  0  0  0  0  0  0  0  0  0  0
  -82.9713   31.7625    0.4305 C   0  0  0  0  0  0  0  0  0  0  0  0
  -83.9719   30.8395    0.7281 C   0  0  0  0  0  0  0  0  0  0  0  0
  -85.8355   27.6697    2.0193 S   0  0  0  0  0  0  0  0  0  0  0  0
  -86.9169   26.7169    1.0053 C   0  0  0  0  0  0  0  0  0  0  0  0
  -88.2345   27.2201    0.6777 C   0  0  0  0  0  0  0  0  0  0  0  0
  -89.2122   27.2037    1.4243 O   0  0  0  0  0  0  0  0  0  0  0  0
  -88.4017   27.7865   -0.6418 N   0  0  0  0  0  0  0  0  0  0  0  0
  -87.3743   27.8921   -1.6394 C   0  0  0  0  0  0  0  0  0  0  0  0
  -87.9103   28.9196   -2.6429 C   0  0  0  0  0  0  0  0  0  0  0  0
  -89.3908   28.6515   -2.6064 C   0  0  0  0  0  0  0  0  0  0  0  0
  -89.6117   28.3371   -1.1740 C   0  0  0  0  0  0  0  0  0  0  0  0
  -90.6555   28.5036   -0.4930 O   0  0  0  0  0  0  0  0  0  0  0  0
  1  2  1  0  0  0
  2  3  1  0  0  0
  3 11  1  0  0  0
 11 12  1  0  0  0
 12 13  1  0  0  0
 13 14  2  0  0  0
 13 15  1  0  0  0
 15 16  1  0  0  0
 16 17  1  0  0  0
 17 18  1  0  0  0
 18 19  1  0  0  0
 19 20  2  0  0  0
  3  4  2  0  0  0
  4  5  1  0  0  0
  5  6  2  0  0  0
  6  7  1  0  0  0
  7  8  2  0  0  0
  8  9  1  0  0  0
  9 10  2  0  0  0
 10  2  1  0  0  0
 19 15  1  0  0  0
 10  5  1  0  0  0
M  END
> <minimizedAffinity>
-7.15623

> <CNNscore>
0.4730829298

> <CNNaffinity>
5.6909384727

> <CNN_VS>
2.6922857761

> <CNNaffinity_variance>
0.2101745307

$$$$
[H]c1c([H])c([H])c2c(nc(SC([H])([H])C(=O)N3C(=O)C([H])([H])C([H])([H])C3([H])[H])n2C([H])([H])[H])c1[H]


 20 22  0  0  0  0  0  0  0  0999 V2000
  -87.3928   32.9455   -0.9948 C   0  0  0  0  0  0  0  0  0  0  0  0
  -86.9149   31.7039   -0.3803 N   0  0  0  0  0  0  0  0  0  0  0  0
  -87.5395   30.5544   -0.1665 C   0  0  0  0  0  0  0  0  0  0  0  0
  -86.6364   29.6965    0.3922 N   0  0  0  0  0  0  0  0  0  0  0  0
  -85.4434   30.3026    0.5330 C   0  0  0  0  0  0  0  0  0  0  0  0
  -84.2295   29.8725    1.0375 C   0  0  0  0  0  0  0  0  0  0  0  0
  -83.1624   30.7337    1.0551 C   0  0  0  0  0  0  0  0  0  0  0  0
  -83.3335   32.0223    0.5623 C   0  0  0  0  0  0  0  0  0  0  0  0
  -84.5360   32.4449    0.0637 C   0  0  0  0  0  0  0  0  0  0  0  0
  -85.6252   31.5761    0.0420 C   0  0  0  0  0  0  0  0  0  0  0  0
  -89.2071   30.1230   -0.4540 S   0  0  0  0  0  0  0  0  0  0  0  0
  -89.6201   28.4126   -0.5521 C   0  0  0  0  0  0  0  0  0  0  0  0
  -89.1647   27.4968    0.4728 C   0  0  0  0  0  0  0  0  0  0  0  0
  -88.2543   26.6788    0.3475 O   0  0  0  0  0  0  0  0  0  0  0  0
  -89.8464   27.5591    1.7460 N   0  0  0  0  0  0  0  0  0  0  0  0
  -90.9239   28.4508    2.0714 C   0  0  0  0  0  0  0  0  0  0  0  0
  -90.9925   28.4358    3.6029 C   0  0  0  0  0  0  0  0  0  0  0  0
  -90.5970   27.0190    3.9212 C   0  0  0  0  0  0  0  0  0  0  0  0
  -89.5633   26.7492    2.8925 C   0  0  0  0  0  0  0  0  0  0  0  0
  -88.5867   25.9600    2.9594 O   0  0  0  0  0  0  0  0  0  0  0  0
  1  2  1  0  0  0
  2  3  1  0  0  0
  3 11  1  0  0  0
 11 12  1  0  0  0
 12 13  1  0  0  0
 13 14  2  0  0  0
 13 15  1  0  0  0
 15 16  1  0  0  0
 16 17  1  0  0  0
 17 18  1  0  0  0
 18 19  1  0  0  0
 19 20  2  0  0  0
  3  4  2  0  0  0
  4  5  1  0  0  0
  5  6  2  0  0  0
  6  7  1  0  0  0
  7  8  2  0  0  0
  8  9  1  0  0  0
  9 10  2  0  0  0
 10  2  1  0  0  0
 19 15  1  0  0  0
 10  5  1  0  0  0
M  END
> <minimizedAffinity>
-7.24843

> <CNNscore>
0.3934736848

> <CNNaffinity>
5.5403304100

> <CNN_VS>
2.1799743176

> <CNNaffinity_variance>
0.1120874435

$$$$
[H]c1c([H])c([H])c2c(nc(SC([H])([H])C(=O)N3C(=O)C([H])([H])C([H])([H])C3([H])[H])n2C([H])([H])[H])c1[H]


 20 22  0  0  0  0  0  0  0  0999 V2000
  -82.6039   32.2326   -0.0905 C   0  0  0  0  0  0  0  0  0  0  0  0
  -83.7981   31.5859    0.4601 N   0  0  0  0  0  0  0  0  0  0  0  0
  -85.0796   31.9048    0.3444 C   0  0  0  0  0  0  0  0  0  0  0  0
  -85.7990   30.9523    1.0068 N   0  0  0  0  0  0  0  0  0  0  0  0
  -84.9744   30.0336    1.5418 C   0  0  0  0  0  0  0  0  0  0  0  0
  -85.2040   28.8949    2.2924 C   0  0  0  0  0  0  0  0  0  0  0  0
  -84.1410   28.1355    2.7099 C   0  0  0  0  0  0  0  0  0  0  0  0
  -82.8553   28.5357    2.3639 C   0  0  0  0  0  0  0  0  0  0  0  0
  -82.6314   29.6631    1.6209 C   0  0  0  0  0  0  0  0  0  0  0  0
  -83.7060   30.4400    1.1928 C   0  0  0  0  0  0  0  0  0  0  0  0
  -85.8182   33.2820   -0.4350 S   0  0  0  0  0  0  0  0  0  0  0  0
  -87.3953   33.0649   -1.1906 C   0  0  0  0  0  0  0  0  0  0  0  0
  -87.5001   32.3966   -2.4708 C   0  0  0  0  0  0  0  0  0  0  0  0
  -87.3920   32.9372   -3.5706 O   0  0  0  0  0  0  0  0  0  0  0  0
  -87.7541   30.9738   -2.4395 N   0  0  0  0  0  0  0  0  0  0  0  0
  -87.9041   30.1801   -1.2523 C   0  0  0  0  0  0  0  0  0  0  0  0
  -87.7174   28.7337   -1.7248 C   0  0  0  0  0  0  0  0  0  0  0  0
  -88.3108   28.7759   -3.1073 C   0  0  0  0  0  0  0  0  0  0  0  0
  -87.8959   30.1191   -3.5797 C   0  0  0  0  0  0  0  0  0  0  0  0
  -87.6891   30.4989   -4.7603 O   0  0  0  0  0  0  0  0  0  0  0  0
  1  2  1  0  0  0
  2  3  1  0  0  0
  3 11  1  0  0  0
 11 12  1  0  0  0
 12 13  1  0  0  0
 13 14  2  0  0  0
 13 15  1  0  0  0
 15 16  1  0  0  0
 16 17  1  0  0  0
 17 18  1  0  0  0
 18 19  1  0  0  0
 19 20  2  0  0  0
  3  4  2  0  0  0
  4  5  1  0  0  0
  5  6  2  0  0  0
  6  7  1  0  0  0
  7  8  2  0  0  0
  8  9  1  0  0  0
  9 10  2  0  0  0
 10  2  1  0  0  0
 19 15  1  0  0  0
 10  5  1  0  0  0
M  END
> <minimizedAffinity>
-8.36084

> <CNNscore>
0.3374838233

> <CNNaffinity>
5.6782426834

> <CNN_VS>
1.9163150787

> <CNNaffinity_variance>
0.1084576026

$$$$
[H]c1c([H])c([H])c2c(nc(SC([H])([H])C(=O)N3C(=O)C([H])([H])C([H])([H])C3([H])[H])n2C([H])([H])[H])c1[H]


 20 22  0  0  0  0  0  0  0  0999 V2000
  -87.5224   30.4812   -0.1701 C   0  0  0  0  0  0  0  0  0  0  0  0
  -86.3185   29.9448    0.4705 N   0  0  0  0  0  0  0  0  0  0  0  0
  -86.1069   28.7782    1.0634 C   0  0  0  0  0  0  0  0  0  0  0  0
  -84.7989   28.7494    1.4532 N   0  0  0  0  0  0  0  0  0  0  0  0
  -84.1847   29.8960    1.1091 C   0  0  0  0  0  0  0  0  0  0  0  0
  -82.8892   30.3502    1.2776 C   0  0  0  0  0  0  0  0  0  0  0  0
  -82.5439   31.5936    0.8133 C   0  0  0  0  0  0  0  0  0  0  0  0
  -83.5128   32.3660    0.1829 C   0  0  0  0  0  0  0  0  0  0  0  0
  -84.7939   31.9136    0.0177 C   0  0  0  0  0  0  0  0  0  0  0  0
  -85.1529   30.6515    0.4863 C   0  0  0  0  0  0  0  0  0  0  0  0
  -87.2236   27.4754    1.3878 S   0  0  0  0  0  0  0  0  0  0  0  0
  -87.4860   26.2703    0.1291 C   0  0  0  0  0  0  0  0  0  0  0  0
  -88.2893   26.5963   -1.0307 C   0  0  0  0  0  0  0  0  0  0  0  0
  -88.1316   27.5766   -1.7571 O   0  0  0  0  0  0  0  0  0  0  0  0
  -89.3647   25.6847   -1.3504 N   0  0  0  0  0  0  0  0  0  0  0  0
  -89.6917   24.4928   -0.6193 C   0  0  0  0  0  0  0  0  0  0  0  0
  -90.5761   23.6814   -1.5730 C   0  0  0  0  0  0  0  0  0  0  0  0
  -91.3184   24.7635   -2.3101 C   0  0  0  0  0  0  0  0  0  0  0  0
  -90.2792   25.8130   -2.4448 C   0  0  0  0  0  0  0  0  0  0  0  0
  -90.1689   26.6880   -3.3409 O   0  0  0  0  0  0  0  0  0  0  0  0
  1  2  1  0  0  0
  2  3  1  0  0  0
  3 11  1  0  0  0
 11 12  1  0  0  0
 12 13  1  0  0  0
 13 14  2  0  0  0
 13 15  1  0  0  0
 15 16  1  0  0  0
 16 17  1  0  0  0
 17 18  1  0  0  0
 18 19  1  0  0  0
 19 20  2  0  0  0
  3  4  2  0  0  0
  4  5  1  0  0  0
  5  6  2  0  0  0
  6  7  1  0  0  0
  7  8  2  0  0  0
  8  9  1  0  0  0
  9 10  2  0  0  0
 10  2  1  0  0  0
 19 15  1  0  0  0
 10  5  1  0  0  0
M  END
> <minimizedAffinity>
-7.26689

> <CNNscore>
0.3324508071

> <CNNaffinity>
5.2459449768

> <CNN_VS>
1.7440186739

> <CNNaffinity_variance>
0.1722297966

$$$$
[H]c1c([H])c([H])c2c(nc(SC([H])([H])C(=O)N3C(=O)C([H])([H])C([H])([H])C3([H])[H])n2C([H])([H])[H])c1[H]


 20 22  0  0  0  0  0  0  0  0999 V2000
  -87.8361   29.7600   -0.1956 C   0  0  0  0  0  0  0  0  0  0  0  0
  -86.7562   30.7486   -0.2578 N   0  0  0  0  0  0  0  0  0  0  0  0
  -86.7193   31.9477   -0.8219 C   0  0  0  0  0  0  0  0  0  0  0  0
  -85.4949   32.4882   -0.5530 N   0  0  0  0  0  0  0  0  0  0  0  0
  -84.7581   31.6322    0.1783 C   0  0  0  0  0  0  0  0  0  0  0  0
  -83.4772   31.7059    0.6948 C   0  0  0  0  0  0  0  0  0  0  0  0
  -82.9787   30.6520    1.4171 C   0  0  0  0  0  0  0  0  0  0  0  0
  -83.7811   29.5332    1.6098 C   0  0  0  0  0  0  0  0  0  0  0  0
  -85.0483   29.4634    1.0975 C   0  0  0  0  0  0  0  0  0  0  0  0
  -85.5622   30.5299    0.3627 C   0  0  0  0  0  0  0  0  0  0  0  0
  -87.9240   32.7598   -1.7909 S   0  0  0  0  0  0  0  0  0  0  0  0
  -88.1569   32.2224   -3.4529 C   0  0  0  0  0  0  0  0  0  0  0  0
  -89.0568   31.1252   -3.7408 C   0  0  0  0  0  0  0  0  0  0  0  0
  -88.7985   29.9312   -3.5944 O   0  0  0  0  0  0  0  0  0  0  0  0
  -90.3662   31.4764   -4.2426 N   0  0  0  0  0  0  0  0  0  0  0  0
  -90.8402   32.8125   -4.4707 C   0  0  0  0  0  0  0  0  0  0  0  0
  -92.3637   32.6735   -4.5697 C   0  0  0  0  0  0  0  0  0  0  0  0
  -92.5146   31.3227   -5.2160 C   0  0  0  0  0  0  0  0  0  0  0  0
  -91.4073   30.5578   -4.5929 C   0  0  0  0  0  0  0  0  0  0  0  0
  -91.3390   29.3200   -4.3825 O   0  0  0  0  0  0  0  0  0  0  0  0
  1  2  1  0  0  0
  2  3  1  0  0  0
  3 11  1  0  0  0
 11 12  1  0  0  0
 12 13  1  0  0  0
 13 14  2  0  0  0
 13 15  1  0  0  0
 15 16  1  0  0  0
 16 17  1  0  0  0
 17 18  1  0  0  0
 18 19  1  0  0  0
 19 20  2  0  0  0
  3  4  2  0  0  0
  4  5  1  0  0  0
  5  6  2  0  0  0
  6  7  1  0  0  0
  7  8  2  0  0  0
  8  9  1  0  0  0
  9 10  2  0  0  0
 10  2  1  0  0  0
 19 15  1  0  0  0
 10  5  1  0  0  0
M  END
> <minimizedAffinity>
-6.93874

> <CNNscore>
0.3064942360

> <CNNaffinity>
5.2079706192

> <CNN_VS>
1.5962129831

> <CNNaffinity_variance>
0.1210284606

$$$$
[H]c1c([H])c([H])c2c(nc(SC([H])([H])C(=O)N3C(=O)C([H])([H])C([H])([H])C3([H])[H])n2C([H])([H])[H])c1[H]


 20 22  0  0  0  0  0  0  0  0999 V2000
  -90.5388   29.2780    1.1125 C   0  0  0  0  0  0  0  0  0  0  0  0
  -89.6506   28.1708    1.4767 N   0  0  0  0  0  0  0  0  0  0  0  0
  -88.5241   27.7522    0.9171 C   0  0  0  0  0  0  0  0  0  0  0  0
  -88.0567   26.7124    1.6681 N   0  0  0  0  0  0  0  0  0  0  0  0
  -88.8865   26.4726    2.6997 C   0  0  0  0  0  0  0  0  0  0  0  0
  -88.8604   25.5447    3.7250 C   0  0  0  0  0  0  0  0  0  0  0  0
  -89.8686   25.5370    4.6547 C   0  0  0  0  0  0  0  0  0  0  0  0
  -90.8941   26.4684    4.5381 C   0  0  0  0  0  0  0  0  0  0  0  0
  -90.9171   27.3854    3.5223 C   0  0  0  0  0  0  0  0  0  0  0  0
  -89.8965   27.4000    2.5738 C   0  0  0  0  0  0  0  0  0  0  0  0
  -87.7258   28.3116   -0.5319 S   0  0  0  0  0  0  0  0  0  0  0  0
  -86.5238   29.5912   -0.3796 C   0  0  0  0  0  0  0  0  0  0  0  0
  -85.3510   29.3899    0.4455 C   0  0  0  0  0  0  0  0  0  0  0  0
  -85.1156   28.3894    1.1218 O   0  0  0  0  0  0  0  0  0  0  0  0
  -84.3831   30.4634    0.4678 N   0  0  0  0  0  0  0  0  0  0  0  0
  -84.4902   31.6970   -0.2592 C   0  0  0  0  0  0  0  0  0  0  0  0
  -83.0708   32.2762   -0.2543 C   0  0  0  0  0  0  0  0  0  0  0  0
  -82.5520   31.8247    1.0844 C   0  0  0  0  0  0  0  0  0  0  0  0
  -83.1598   30.4780    1.2120 C   0  0  0  0  0  0  0  0  0  0  0  0
  -82.7234   29.4846    1.8475 O   0  0  0  0  0  0  0  0  0  0  0  0
  1  2  1  0  0  0
  2  3  1  0  0  0
  3 11  1  0  0  0
 11 12  1  0  0  0
 12 13  1  0  0  0
 13 14  2  0  0  0
 13 15  1  0  0  0
 15 16  1  0  0  0
 16 17  1  0  0  0
 17 18  1  0  0  0
 18 19  1  0  0  0
 19 20  2  0  0  0
  3  4  2  0  0  0
  4  5  1  0  0  0
  5  6  2  0  0  0
  6  7  1  0  0  0
  7  8  2  0  0  0
  8  9  1  0  0  0
  9 10  2  0  0  0
 10  2  1  0  0  0
 19 15  1  0  0  0
 10  5  1  0  0  0
M  END
> <minimizedAffinity>
-6.94258

> <CNNscore>
0.3025624454

> <CNNaffinity>
5.4575834274

> <CNN_VS>
1.6512597799

> <CNNaffinity_variance>
0.1065853983

$$$$
[H]c1c([H])c([H])c2c(nc(SC([H])([H])C(=O)N3C(=O)C([H])([H])C([H])([H])C3([H])[H])n2C([H])([H])[H])c1[H]


 20 22  0  0  0  0  0  0  0  0999 V2000
  -83.2918   32.7655   -0.3277 C   0  0  0  0  0  0  0  0  0  0  0  0
  -84.3179   31.8455    0.1705 N   0  0  0  0  0  0  0  0  0  0  0  0
  -85.6321   31.8471   -0.0036 C   0  0  0  0  0  0  0  0  0  0  0  0
  -86.1292   30.7440    0.6285 N   0  0  0  0  0  0  0  0  0  0  0  0
  -85.1319   30.0468    1.2027 C   0  0  0  0  0  0  0  0  0  0  0  0
  -85.1131   28.8803    1.9456 C   0  0  0  0  0  0  0  0  0  0  0  0
  -83.9179   28.3963    2.4125 C   0  0  0  0  0  0  0  0  0  0  0  0
  -82.7527   29.0974    2.1236 C   0  0  0  0  0  0  0  0  0  0  0  0
  -82.7746   30.2515    1.3882 C   0  0  0  0  0  0  0  0  0  0  0  0
  -83.9847   30.7498    0.9099 C   0  0  0  0  0  0  0  0  0  0  0  0
  -86.6458   33.0119   -0.8193 S   0  0  0  0  0  0  0  0  0  0  0  0
  -88.3614   32.6477   -0.9907 C   0  0  0  0  0  0  0  0  0  0  0  0
  -88.8309   31.8871   -2.1298 C   0  0  0  0  0  0  0  0  0  0  0  0
  -88.8521   30.6596   -2.2104 O   0  0  0  0  0  0  0  0  0  0  0  0
  -89.3123   32.6467   -3.2616 N   0  0  0  0  0  0  0  0  0  0  0  0
  -89.3650   34.0794   -3.3417 C   0  0  0  0  0  0  0  0  0  0  0  0
  -90.3228   34.3694   -4.5031 C   0  0  0  0  0  0  0  0  0  0  0  0
  -90.0438   33.2207   -5.4346 C   0  0  0  0  0  0  0  0  0  0  0  0
  -89.8174   32.1031   -4.4863 C   0  0  0  0  0  0  0  0  0  0  0  0
  -90.0163   30.8752   -4.6694 O   0  0  0  0  0  0  0  0  0  0  0  0
  1  2  1  0  0  0
  2  3  1  0  0  0
  3 11  1  0  0  0
 11 12  1  0  0  0
 12 13  1  0  0  0
 13 14  2  0  0  0
 13 15  1  0  0  0
 15 16  1  0  0  0
 16 17  1  0  0  0
 17 18  1  0  0  0
 18 19  1  0  0  0
 19 20  2  0  0  0
  3  4  2  0  0  0
  4  5  1  0  0  0
  5  6  2  0  0  0
  6  7  1  0  0  0
  7  8  2  0  0  0
  8  9  1  0  0  0
  9 10  2  0  0  0
 10  2  1  0  0  0
 19 15  1  0  0  0
 10  5  1  0  0  0
M  END
> <minimizedAffinity>
-7.62471

> <CNNscore>
0.2663020194

> <CNNaffinity>
5.1616182327

> <CNN_VS>
1.3745493889

> <CNNaffinity_variance>
0.2518891394

$$$$
[H]c1c([H])c([H])c2c(nc(SC([H])([H])C(=O)N3C(=O)C([H])([H])C([H])([H])C3([H])[H])n2C([H])([H])[H])c1[H]


 20 22  0  0  0  0  0  0  0  0999 V2000
  -83.9687   27.7652    2.5291 C   0  0  0  0  0  0  0  0  0  0  0  0
  -84.9036   28.5036    1.6758 N   0  0  0  0  0  0  0  0  0  0  0  0
  -86.0561   28.1297    1.1380 C   0  0  0  0  0  0  0  0  0  0  0  0
  -86.5623   29.2057    0.4676 N   0  0  0  0  0  0  0  0  0  0  0  0
  -85.7310   30.2578    0.5796 C   0  0  0  0  0  0  0  0  0  0  0  0
  -85.7874   31.5506    0.0914 C   0  0  0  0  0  0  0  0  0  0  0  0
  -84.7683   32.4240    0.3734 C   0  0  0  0  0  0  0  0  0  0  0  0
  -83.7014   31.9808    1.1467 C   0  0  0  0  0  0  0  0  0  0  0  0
  -83.6485   30.7008    1.6283 C   0  0  0  0  0  0  0  0  0  0  0  0
  -84.6799   29.8073    1.3465 C   0  0  0  0  0  0  0  0  0  0  0  0
  -86.8464   26.5727    1.1696 S   0  0  0  0  0  0  0  0  0  0  0  0
  -88.0490   26.2741    2.4226 C   0  0  0  0  0  0  0  0  0  0  0  0
  -89.0868   27.2507    2.6789 C   0  0  0  0  0  0  0  0  0  0  0  0
  -89.3870   27.7021    3.7833 O   0  0  0  0  0  0  0  0  0  0  0  0
  -89.8254   27.7268    1.5310 N   0  0  0  0  0  0  0  0  0  0  0  0
  -89.6098   27.3155    0.1723 C   0  0  0  0  0  0  0  0  0  0  0  0
  -90.3049   28.3881   -0.6741 C   0  0  0  0  0  0  0  0  0  0  0  0
  -91.4760   28.7629    0.1937 C   0  0  0  0  0  0  0  0  0  0  0  0
  -90.8891   28.6853    1.5534 C   0  0  0  0  0  0  0  0  0  0  0  0
  -91.2243   29.3245    2.5830 O   0  0  0  0  0  0  0  0  0  0  0  0
  1  2  1  0  0  0
  2  3  1  0  0  0
  3 11  1  0  0  0
 11 12  1  0  0  0
 12 13  1  0  0  0
 13 14  2  0  0  0
 13 15  1  0  0  0
 15 16  1  0  0  0
 16 17  1  0  0  0
 17 18  1  0  0  0
 18 19  1  0  0  0
 19 20  2  0  0  0
  3  4  2  0  0  0
  4  5  1  0  0  0
  5  6  2  0  0  0
  6  7  1  0  0  0
  7  8  2  0  0  0
  8  9  1  0  0  0
  9 10  2  0  0  0
 10  2  1  0  0  0
 19 15  1  0  0  0
 10  5  1  0  0  0
M  END
> <minimizedAffinity>
-6.79221

> <CNNscore>
0.2572820187

> <CNNaffinity>
5.1759653091

> <CNN_VS>
1.3316828012

> <CNNaffinity_variance>
0.2890784144

$$$$
[H]c1c(C([H])([H])[H])c([H])c2c(c1C(F)(F)F)C(=O)N1C([H])([H])C([H])([H])N([H])C([H])([H])[C@@]21[H]


 20 22  0  0  0  0  0  0  0  0999 V2000
  -87.3096   33.2993   -1.6617 C   0  0  0  0  0  0  0  0  0  0  0  0
  -86.6801   32.1962   -0.8879 C   0  0  0  0  0  0  0  0  0  0  0  0
  -87.3751   31.0101   -0.8025 C   0  0  0  0  0  0  0  0  0  0  0  0
  -86.8479   29.9574   -0.1038 C   0  0  0  0  0  0  0  0  0  0  0  0
  -85.6023   30.1056    0.5173 C   0  0  0  0  0  0  0  0  0  0  0  0
  -84.8890   31.2732    0.4481 C   0  0  0  0  0  0  0  0  0  0  0  0
  -85.4486   32.3237   -0.2677 C   0  0  0  0  0  0  0  0  0  0  0  0
  -85.3633   28.8267    1.1871 C   0  0  0  0  0  0  0  0  0  0  0  0
  -84.3471   28.5623    1.8538 O   0  0  0  0  0  0  0  0  0  0  0  0
  -86.4325   27.9479    0.9739 N   0  0  0  0  0  0  0  0  0  0  0  0
  -86.7682   26.6207    1.4242 C   0  0  0  0  0  0  0  0  0  0  0  0
  -88.2021   26.5817    1.9485 C   0  0  0  0  0  0  0  0  0  0  0  0
  -89.0647   27.1444    0.9599 N   0  0  0  0  0  0  0  0  0  0  0  0
  -88.7743   28.5315    0.6361 C   0  0  0  0  0  0  0  0  0  0  0  0
  -87.3790   28.6063    0.1032 C   0  0  0  0  0  0  0  0  0  0  0  0
  -90.0734   27.0630    1.1867 H   0  0  0  0  0  0  0  0  0  0  0  0
  -83.5705   31.4009    1.1057 C   0  0  0  0  0  0  0  0  0  0  0  0
  -82.6413   30.4900    0.7098 F   0  0  0  0  0  0  0  0  0  0  0  0
  -83.7280   31.4087    2.4991 F   0  0  0  0  0  0  0  0  0  0  0  0
  -83.0300   32.6634    0.8177 F   0  0  0  0  0  0  0  0  0  0  0  0
  1  2  1  0  0  0
  2  3  2  0  0  0
  3  4  1  0  0  0
  4  5  2  0  0  0
  5  6  1  0  0  0
  6 17  1  0  0  0
 17 18  1  0  0  0
 17 19  1  0  0  0
 17 20  1  0  0  0
  6  7  2  0  0  0
  5  8  1  0  0  0
  8  9  2  0  0  0
  8 10  1  0  0  0
 10 11  1  0  0  0
 11 12  1  0  0  0
 12 13  1  0  0  0
 13 14  1  0  0  0
 14 15  1  0  0  0
  7  2  1  0  0  0
 15 10  1  0  0  0
 15  4  1  0  0  0
 13 16  1  0  0  0
M  END
> <minimizedAffinity>
-8.21610

> <CNNscore>
0.6967423558

> <CNNaffinity>
5.5029816628

> <CNN_VS>
3.8341603279

> <CNNaffinity_variance>
0.1143387556

$$$$
[H]c1c(C([H])([H])[H])c([H])c2c(c1C(F)(F)F)C(=O)N1C([H])([H])C([H])([H])N([H])C([H])([H])[C@@]21[H]


 20 22  0  0  0  0  0  0  0  0999 V2000
  -86.8025   33.2059   -1.2827 C   0  0  0  0  0  0  0  0  0  0  0  0
  -86.5163   31.9326   -0.5696 C   0  0  0  0  0  0  0  0  0  0  0  0
  -87.1866   30.8074   -0.9957 C   0  0  0  0  0  0  0  0  0  0  0  0
  -86.9660   29.6052   -0.3788 C   0  0  0  0  0  0  0  0  0  0  0  0
  -86.0564   29.5396    0.6831 C   0  0  0  0  0  0  0  0  0  0  0  0
  -85.3754   30.6423    1.1271 C   0  0  0  0  0  0  0  0  0  0  0  0
  -85.6193   31.8479    0.4821 C   0  0  0  0  0  0  0  0  0  0  0  0
  -86.0898   28.1432    1.1191 C   0  0  0  0  0  0  0  0  0  0  0  0
  -85.4082   27.6822    2.0518 O   0  0  0  0  0  0  0  0  0  0  0  0
  -86.9914   27.4032    0.3441 N   0  0  0  0  0  0  0  0  0  0  0  0
  -87.4703   26.0440    0.3548 C   0  0  0  0  0  0  0  0  0  0  0  0
  -88.9955   26.0149    0.2785 C   0  0  0  0  0  0  0  0  0  0  0  0
  -89.4122   26.8171   -0.8265 N   0  0  0  0  0  0  0  0  0  0  0  0
  -89.0240   28.2145   -0.7278 C   0  0  0  0  0  0  0  0  0  0  0  0
  -87.5314   28.2831   -0.6666 C   0  0  0  0  0  0  0  0  0  0  0  0
  -90.4302   26.7705   -1.0194 H   0  0  0  0  0  0  0  0  0  0  0  0
  -84.4126   30.5444    2.2454 C   0  0  0  0  0  0  0  0  0  0  0  0
  -83.3425   29.7379    2.0121 F   0  0  0  0  0  0  0  0  0  0  0  0
  -85.0822   30.1890    3.4252 F   0  0  0  0  0  0  0  0  0  0  0  0
  -83.8917   31.8178    2.5207 F   0  0  0  0  0  0  0  0  0  0  0  0
  1  2  1  0  0  0
  2  3  2  0  0  0
  3  4  1  0  0  0
  4  5  2  0  0  0
  5  6  1  0  0  0
  6 17  1  0  0  0
 17 18  1  0  0  0
 17 19  1  0  0  0
 17 20  1  0  0  0
  6  7  2  0  0  0
  5  8  1  0  0  0
  8  9  2  0  0  0
  8 10  1  0  0  0
 10 11  1  0  0  0
 11 12  1  0  0  0
 12 13  1  0  0  0
 13 14  1  0  0  0
 14 15  1  0  0  0
  7  2  1  0  0  0
 15 10  1  0  0  0
 15  4  1  0  0  0
 13 16  1  0  0  0
M  END
> <minimizedAffinity>
-8.29303

> <CNNscore>
0.6915744543

> <CNNaffinity>
5.3837699890

> <CNN_VS>
3.7232778072

> <CNNaffinity_variance>
0.1953035593

$$$$
[H]c1c(C([H])([H])[H])c([H])c2c(c1C(F)(F)F)C(=O)N1C([H])([H])C([H])([H])N([H])C([H])([H])[C@@]21[H]


 20 22  0  0  0  0  0  0  0  0999 V2000
  -87.8736   34.8184   -3.1181 C   0  0  0  0  0  0  0  0  0  0  0  0
  -87.5510   33.6710   -2.2287 C   0  0  0  0  0  0  0  0  0  0  0  0
  -86.3708   33.7344   -1.5215 C   0  0  0  0  0  0  0  0  0  0  0  0
  -86.0182   32.7086   -0.6860 C   0  0  0  0  0  0  0  0  0  0  0  0
  -86.8692   31.6039   -0.5645 C   0  0  0  0  0  0  0  0  0  0  0  0
  -88.0490   31.5148   -1.2551 C   0  0  0  0  0  0  0  0  0  0  0  0
  -88.3807   32.5703   -2.0946 C   0  0  0  0  0  0  0  0  0  0  0  0
  -86.1836   30.7033    0.3629 C   0  0  0  0  0  0  0  0  0  0  0  0
  -86.6284   29.6011    0.7294 O   0  0  0  0  0  0  0  0  0  0  0  0
  -84.9639   31.2526    0.7770 N   0  0  0  0  0  0  0  0  0  0  0  0
  -83.8729   30.8069    1.6066 C   0  0  0  0  0  0  0  0  0  0  0  0
  -82.5384   31.0281    0.8975 C   0  0  0  0  0  0  0  0  0  0  0  0
  -82.4758   32.3843    0.4560 N   0  0  0  0  0  0  0  0  0  0  0  0
  -83.5181   32.7518   -0.4883 C   0  0  0  0  0  0  0  0  0  0  0  0
  -84.8431   32.5622    0.1788 C   0  0  0  0  0  0  0  0  0  0  0  0
  -81.5579   32.6539    0.0554 H   0  0  0  0  0  0  0  0  0  0  0  0
  -88.9351   30.3406   -1.1017 C   0  0  0  0  0  0  0  0  0  0  0  0
  -89.3980   30.1321    0.1601 F   0  0  0  0  0  0  0  0  0  0  0  0
  -88.3104   29.1972   -1.6203 F   0  0  0  0  0  0  0  0  0  0  0  0
  -90.0679   30.5065   -1.9129 F   0  0  0  0  0  0  0  0  0  0  0  0
  1  2  1  0  0  0
  2  3  2  0  0  0
  3  4  1  0  0  0
  4  5  2  0  0  0
  5  6  1  0  0  0
  6 17  1  0  0  0
 17 18  1  0  0  0
 17 19  1  0  0  0
 17 20  1  0  0  0
  6  7  2  0  0  0
  5  8  1  0  0  0
  8  9  2  0  0  0
  8 10  1  0  0  0
 10 11  1  0  0  0
 11 12  1  0  0  0
 12 13  1  0  0  0
 13 14  1  0  0  0
 14 15  1  0  0  0
  7  2  1  0  0  0
 15 10  1  0  0  0
 15  4  1  0  0  0
 13 16  1  0  0  0
M  END
> <minimizedAffinity>
-7.69211

> <CNNscore>
0.5044269562

> <CNNaffinity>
5.4690799713

> <CNN_VS>
2.7587513924

> <CNNaffinity_variance>
0.0939956754

$$$$
[H]c1c(C([H])([H])[H])c([H])c2c(c1C(F)(F)F)C(=O)N1C([H])([H])C([H])([H])N([H])C([H])([H])[C@@]21[H]


 20 22  0  0  0  0  0  0  0  0999 V2000
  -86.5813   26.8536    1.6605 C   0  0  0  0  0  0  0  0  0  0  0  0
  -86.1688   28.2096    1.2099 C   0  0  0  0  0  0  0  0  0  0  0  0
  -87.0968   28.9512    0.5128 C   0  0  0  0  0  0  0  0  0  0  0  0
  -86.7765   30.2069    0.0712 C   0  0  0  0  0  0  0  0  0  0  0  0
  -85.5013   30.7194    0.3369 C   0  0  0  0  0  0  0  0  0  0  0  0
  -84.5593   30.0044    1.0283 C   0  0  0  0  0  0  0  0  0  0  0  0
  -84.9125   28.7338    1.4641 C   0  0  0  0  0  0  0  0  0  0  0  0
  -85.4898   32.0402   -0.2930 C   0  0  0  0  0  0  0  0  0  0  0  0
  -84.5197   32.8183   -0.2750 O   0  0  0  0  0  0  0  0  0  0  0  0
  -86.7165   32.3035   -0.9151 N   0  0  0  0  0  0  0  0  0  0  0  0
  -87.2444   33.3786   -1.7167 C   0  0  0  0  0  0  0  0  0  0  0  0
  -87.9105   32.8280   -2.9759 C   0  0  0  0  0  0  0  0  0  0  0  0
  -88.8422   31.8160   -2.5937 N   0  0  0  0  0  0  0  0  0  0  0  0
  -88.2429   30.6835   -1.9072 C   0  0  0  0  0  0  0  0  0  0  0  0
  -87.5924   31.1838   -0.6570 C   0  0  0  0  0  0  0  0  0  0  0  0
  -89.4196   31.4585   -3.3777 H   0  0  0  0  0  0  0  0  0  0  0  0
  -83.2220   30.5726    1.3040 C   0  0  0  0  0  0  0  0  0  0  0  0
  -83.2255   31.7195    2.0350 F   0  0  0  0  0  0  0  0  0  0  0  0
  -82.5086   30.7235    0.1061 F   0  0  0  0  0  0  0  0  0  0  0  0
  -82.4660   29.6436    2.0350 F   0  0  0  0  0  0  0  0  0  0  0  0
  1  2  1  0  0  0
  2  3  2  0  0  0
  3  4  1  0  0  0
  4  5  2  0  0  0
  5  6  1  0  0  0
  6 17  1  0  0  0
 17 18  1  0  0  0
 17 19  1  0  0  0
 17 20  1  0  0  0
  6  7  2  0  0  0
  5  8  1  0  0  0
  8  9  2  0  0  0
  8 10  1  0  0  0
 10 11  1  0  0  0
 11 12  1  0  0  0
 12 13  1  0  0  0
 13 14  1  0  0  0
 14 15  1  0  0  0
  7  2  1  0  0  0
 15 10  1  0  0  0
 15  4  1  0  0  0
 13 16  1  0  0  0
M  END
> <minimizedAffinity>
-8.61368

> <CNNscore>
0.4533740878

> <CNNaffinity>
5.1137232780

> <CNN_VS>
2.3184297085

> <CNNaffinity_variance>
0.2624282241

$$$$
[H]c1c(C([H])([H])[H])c([H])c2c(c1C(F)(F)F)C(=O)N1C([H])([H])C([H])([H])N([H])C([H])([H])[C@@]21[H]


 20 22  0  0  0  0  0  0  0  0999 V2000
  -87.7840   28.2185    0.5964 C   0  0  0  0  0  0  0  0  0  0  0  0
  -88.5971   27.1713    1.2702 C   0  0  0  0  0  0  0  0  0  0  0  0
  -88.9390   26.0635    0.5266 C   0  0  0  0  0  0  0  0  0  0  0  0
  -89.6868   25.0652    1.0910 C   0  0  0  0  0  0  0  0  0  0  0  0
  -90.0950   25.1885    2.4242 C   0  0  0  0  0  0  0  0  0  0  0  0
  -89.7688   26.2785    3.1872 C   0  0  0  0  0  0  0  0  0  0  0  0
  -89.0093   27.2752    2.5882 C   0  0  0  0  0  0  0  0  0  0  0  0
  -90.8863   23.9858    2.6863 C   0  0  0  0  0  0  0  0  0  0  0  0
  -91.4271   23.7247    3.7755 O   0  0  0  0  0  0  0  0  0  0  0  0
  -90.9491   23.1754    1.5461 N   0  0  0  0  0  0  0  0  0  0  0  0
  -91.6152   21.9438    1.2046 C   0  0  0  0  0  0  0  0  0  0  0  0
  -92.3430   22.0831   -0.1309 C   0  0  0  0  0  0  0  0  0  0  0  0
  -91.4245   22.5880   -1.1003 N   0  0  0  0  0  0  0  0  0  0  0  0
  -90.8812   23.8978   -0.7804 C   0  0  0  0  0  0  0  0  0  0  0  0
  -90.1459   23.7959    0.5178 C   0  0  0  0  0  0  0  0  0  0  0  0
  -91.8044   22.6152   -2.0650 H   0  0  0  0  0  0  0  0  0  0  0  0
  -90.2048   26.3802    4.5968 C   0  0  0  0  0  0  0  0  0  0  0  0
  -89.6598   25.4572    5.4339 F   0  0  0  0  0  0  0  0  0  0  0  0
  -91.6055   26.3806    4.6668 F   0  0  0  0  0  0  0  0  0  0  0  0
  -89.8388   27.6358    5.1051 F   0  0  0  0  0  0  0  0  0  0  0  0
  1  2  1  0  0  0
  2  3  2  0  0  0
  3  4  1  0  0  0
  4  5  2  0  0  0
  5  6  1  0  0  0
  6 17  1  0  0  0
 17 18  1  0  0  0
 17 19  1  0  0  0
 17 20  1  0  0  0
  6  7  2  0  0  0
  5  8  1  0  0  0
  8  9  2  0  0  0
  8 10  1  0  0  0
 10 11  1  0  0  0
 11 12  1  0  0  0
 12 13  1  0  0  0
 13 14  1  0  0  0
 14 15  1  0  0  0
  7  2  1  0  0  0
 15 10  1  0  0  0
 15  4  1  0  0  0
 13 16  1  0  0  0
M  END
> <minimizedAffinity>
-6.59129

> <CNNscore>
0.3933895826

> <CNNaffinity>
4.4491186142

> <CNN_VS>
1.7502368689

> <CNNaffinity_variance>
0.4713813663

$$$$
[H]c1c(C([H])([H])[H])c([H])c2c(c1C(F)(F)F)C(=O)N1C([H])([H])C([H])([H])N([H])C([H])([H])[C@@]21[H]


 20 22  0  0  0  0  0  0  0  0999 V2000
  -85.6572   33.3434   -0.5574 C   0  0  0  0  0  0  0  0  0  0  0  0
  -85.9666   31.9170   -0.2720 C   0  0  0  0  0  0  0  0  0  0  0  0
  -86.7800   31.2575   -1.1667 C   0  0  0  0  0  0  0  0  0  0  0  0
  -87.1011   29.9430   -0.9586 C   0  0  0  0  0  0  0  0  0  0  0  0
  -86.5942   29.2867    0.1691 C   0  0  0  0  0  0  0  0  0  0  0  0
  -85.7827   29.9177    1.0747 C   0  0  0  0  0  0  0  0  0  0  0  0
  -85.4737   31.2508    0.8375 C   0  0  0  0  0  0  0  0  0  0  0  0
  -87.1514   27.9355    0.0980 C   0  0  0  0  0  0  0  0  0  0  0  0
  -86.9291   27.0396    0.9316 O   0  0  0  0  0  0  0  0  0  0  0  0
  -87.9649   27.7935   -1.0329 N   0  0  0  0  0  0  0  0  0  0  0  0
  -88.7962   26.7444   -1.5670 C   0  0  0  0  0  0  0  0  0  0  0  0
  -90.1761   27.2893   -1.9298 C   0  0  0  0  0  0  0  0  0  0  0  0
  -90.0087   28.4391   -2.7592 N   0  0  0  0  0  0  0  0  0  0  0  0
  -89.2808   29.5277   -2.1281 C   0  0  0  0  0  0  0  0  0  0  0  0
  -87.9149   29.0339   -1.7720 C   0  0  0  0  0  0  0  0  0  0  0  0
  -90.8968   28.8143   -3.1417 H   0  0  0  0  0  0  0  0  0  0  0  0
  -85.2526   29.1988    2.2535 C   0  0  0  0  0  0  0  0  0  0  0  0
  -84.4284   28.1557    1.9665 F   0  0  0  0  0  0  0  0  0  0  0  0
  -86.3069   28.8107    3.0929 F   0  0  0  0  0  0  0  0  0  0  0  0
  -84.5024   30.0873    3.0388 F   0  0  0  0  0  0  0  0  0  0  0  0
  1  2  1  0  0  0
  2  3  2  0  0  0
  3  4  1  0  0  0
  4  5  2  0  0  0
  5  6  1  0  0  0
  6 17  1  0  0  0
 17 18  1  0  0  0
 17 19  1  0  0  0
 17 20  1  0  0  0
  6  7  2  0  0  0
  5  8  1  0  0  0
  8  9  2  0  0  0
  8 10  1  0  0  0
 10 11  1  0  0  0
 11 12  1  0  0  0
 12 13  1  0  0  0
 13 14  1  0  0  0
 14 15  1  0  0  0
  7  2  1  0  0  0
 15 10  1  0  0  0
 15  4  1  0  0  0
 13 16  1  0  0  0
M  END
> <minimizedAffinity>
-7.40811

> <CNNscore>
0.3893628716

> <CNNaffinity>
4.8103151321

> <CNN_VS>
1.8729580641

> <CNNaffinity_variance>
0.3734483123

$$$$
[H]c1c(C([H])([H])[H])c([H])c2c(c1C(F)(F)F)C(=O)N1C([H])([H])C([H])([H])N([H])C([H])([H])[C@@]21[H]


 20 22  0  0  0  0  0  0  0  0999 V2000
  -89.8481   30.3883   -1.6586 C   0  0  0  0  0  0  0  0  0  0  0  0
  -88.4768   30.7044   -1.1777 C   0  0  0  0  0  0  0  0  0  0  0  0
  -87.7829   29.6965   -0.5453 C   0  0  0  0  0  0  0  0  0  0  0  0
  -86.5160   29.9261   -0.0800 C   0  0  0  0  0  0  0  0  0  0  0  0
  -85.9431   31.1912   -0.2554 C   0  0  0  0  0  0  0  0  0  0  0  0
  -86.6098   32.2114   -0.8811 C   0  0  0  0  0  0  0  0  0  0  0  0
  -87.8931   31.9493   -1.3429 C   0  0  0  0  0  0  0  0  0  0  0  0
  -84.6266   31.0970    0.3764 C   0  0  0  0  0  0  0  0  0  0  0  0
  -83.8040   32.0285    0.4275 O   0  0  0  0  0  0  0  0  0  0  0  0
  -84.4241   29.8192    0.9123 N   0  0  0  0  0  0  0  0  0  0  0  0
  -83.3791   29.1871    1.6775 C   0  0  0  0  0  0  0  0  0  0  0  0
  -83.9668   28.4618    2.8863 C   0  0  0  0  0  0  0  0  0  0  0  0
  -85.0192   27.6074    2.4382 N   0  0  0  0  0  0  0  0  0  0  0  0
  -86.1188   28.3054    1.7927 C   0  0  0  0  0  0  0  0  0  0  0  0
  -85.5821   29.0168    0.5918 C   0  0  0  0  0  0  0  0  0  0  0  0
  -85.4073   26.9945    3.1794 H   0  0  0  0  0  0  0  0  0  0  0  0
  -85.9783   33.5365   -1.0620 C   0  0  0  0  0  0  0  0  0  0  0  0
  -84.7950   33.5214   -1.7325 F   0  0  0  0  0  0  0  0  0  0  0  0
  -85.8648   34.1869    0.1753 F   0  0  0  0  0  0  0  0  0  0  0  0
  -86.8383   34.3620   -1.8022 F   0  0  0  0  0  0  0  0  0  0  0  0
  1  2  1  0  0  0
  2  3  2  0  0  0
  3  4  1  0  0  0
  4  5  2  0  0  0
  5  6  1  0  0  0
  6 17  1  0  0  0
 17 18  1  0  0  0
 17 19  1  0  0  0
 17 20  1  0  0  0
  6  7  2  0  0  0
  5  8  1  0  0  0
  8  9  2  0  0  0
  8 10  1  0  0  0
 10 11  1  0  0  0
 11 12  1  0  0  0
 12 13  1  0  0  0
 13 14  1  0  0  0
 14 15  1  0  0  0
  7  2  1  0  0  0
 15 10  1  0  0  0
 15  4  1  0  0  0
 13 16  1  0  0  0
M  END
> <minimizedAffinity>
-7.52656

> <CNNscore>
0.3688679039

> <CNNaffinity>
5.4639873505

> <CNN_VS>
2.0154895782

> <CNNaffinity_variance>
0.0938244164

$$$$
[H]c1c(C([H])([H])[H])c([H])c2c(c1C(F)(F)F)C(=O)N1C([H])([H])C([H])([H])N([H])C([H])([H])[C@@]21[H]


 20 22  0  0  0  0  0  0  0  0999 V2000
  -87.7057   19.7615    2.2650 C   0  0  0  0  0  0  0  0  0  0  0  0
  -88.9217   20.6066    2.1280 C   0  0  0  0  0  0  0  0  0  0  0  0
  -90.0131   20.0438    1.5043 C   0  0  0  0  0  0  0  0  0  0  0  0
  -91.1621   20.7716    1.3479 C   0  0  0  0  0  0  0  0  0  0  0  0
  -91.2083   22.0859    1.8273 C   0  0  0  0  0  0  0  0  0  0  0  0
  -90.1384   22.6705    2.4520 C   0  0  0  0  0  0  0  0  0  0  0  0
  -88.9865   21.9081    2.5968 C   0  0  0  0  0  0  0  0  0  0  0  0
  -92.5431   22.5680    1.4706 C   0  0  0  0  0  0  0  0  0  0  0  0
  -92.9714   23.7062    1.7312 O   0  0  0  0  0  0  0  0  0  0  0  0
  -93.2659   21.5745    0.7988 N   0  0  0  0  0  0  0  0  0  0  0  0
  -94.5634   21.5012    0.1757 C   0  0  0  0  0  0  0  0  0  0  0  0
  -94.4501   20.9001   -1.2238 C   0  0  0  0  0  0  0  0  0  0  0  0
  -93.7276   19.6720   -1.1356 N   0  0  0  0  0  0  0  0  0  0  0  0
  -92.3723   19.8136   -0.6293 C   0  0  0  0  0  0  0  0  0  0  0  0
  -92.4446   20.3868    0.7501 C   0  0  0  0  0  0  0  0  0  0  0  0
  -93.6934   19.1396   -2.0250 H   0  0  0  0  0  0  0  0  0  0  0  0
  -90.2161   24.0581    2.9580 C   0  0  0  0  0  0  0  0  0  0  0  0
  -89.1151   24.4852    3.6327 F   0  0  0  0  0  0  0  0  0  0  0  0
  -91.3854   24.2286    3.7131 F   0  0  0  0  0  0  0  0  0  0  0  0
  -90.3789   24.9368    1.8762 F   0  0  0  0  0  0  0  0  0  0  0  0
  1  2  1  0  0  0
  2  3  2  0  0  0
  3  4  1  0  0  0
  4  5  2  0  0  0
  5  6  1  0  0  0
  6 17  1  0  0  0
 17 18  1  0  0  0
 17 19  1  0  0  0
 17 20  1  0  0  0
  6  7  2  0  0  0
  5  8  1  0  0  0
  8  9  2  0  0  0
  8 10  1  0  0  0
 10 11  1  0  0  0
 11 12  1  0  0  0
 12 13  1  0  0  0
 13 14  1  0  0  0
 14 15  1  0  0  0
  7  2  1  0  0  0
 15 10  1  0  0  0
 15  4  1  0  0  0
 13 16  1  0  0  0
M  END
> <minimizedAffinity>
0.08909

> <CNNscore>
0.3605505526

> <CNNaffinity>
3.6034958363

> <CNN_VS>
1.2992423773

> <CNNaffinity_variance>
1.3996276855

$$$$
[H]c1c(C([H])([H])[H])c([H])c2c(c1C(F)(F)F)C(=O)N1C([H])([H])C([H])([H])N([H])C([H])([H])[C@@]21[H]


 20 22  0  0  0  0  0  0  0  0999 V2000
  -82.9173   30.6450    1.3529 C   0  0  0  0  0  0  0  0  0  0  0  0
  -84.3317   30.5051    0.9153 C   0  0  0  0  0  0  0  0  0  0  0  0
  -85.0023   29.3670    1.3055 C   0  0  0  0  0  0  0  0  0  0  0  0
  -86.3066   29.1805    0.9338 C   0  0  0  0  0  0  0  0  0  0  0  0
  -86.9413   30.1566    0.1568 C   0  0  0  0  0  0  0  0  0  0  0  0
  -86.2990   31.2980   -0.2448 C   0  0  0  0  0  0  0  0  0  0  0  0
  -84.9766   31.4602    0.1475 C   0  0  0  0  0  0  0  0  0  0  0  0
  -88.2862   29.6306   -0.0799 C   0  0  0  0  0  0  0  0  0  0  0  0
  -89.1639   30.2173   -0.7375 O   0  0  0  0  0  0  0  0  0  0  0  0
  -88.4453   28.3819    0.5335 N   0  0  0  0  0  0  0  0  0  0  0  0
  -89.4961   27.3969    0.5859 C   0  0  0  0  0  0  0  0  0  0  0  0
  -88.9417   26.0081    0.2754 C   0  0  0  0  0  0  0  0  0  0  0  0
  -87.8153   25.7676    1.1190 N   0  0  0  0  0  0  0  0  0  0  0  0
  -86.7213   26.7067    0.9337 C   0  0  0  0  0  0  0  0  0  0  0  0
  -87.2246   28.0801    1.2450 C   0  0  0  0  0  0  0  0  0  0  0  0
  -87.4378   24.8040    1.0514 H   0  0  0  0  0  0  0  0  0  0  0  0
  -86.9953   32.3185   -1.0579 C   0  0  0  0  0  0  0  0  0  0  0  0
  -88.1114   32.8444   -0.4855 F   0  0  0  0  0  0  0  0  0  0  0  0
  -87.2588   31.8131   -2.3392 F   0  0  0  0  0  0  0  0  0  0  0  0
  -86.1278   33.3967   -1.2896 F   0  0  0  0  0  0  0  0  0  0  0  0
  1  2  1  0  0  0
  2  3  2  0  0  0
  3  4  1  0  0  0
  4  5  2  0  0  0
  5  6  1  0  0  0
  6 17  1  0  0  0
 17 18  1  0  0  0
 17 19  1  0  0  0
 17 20  1  0  0  0
  6  7  2  0  0  0
  5  8  1  0  0  0
  8  9  2  0  0  0
  8 10  1  0  0  0
 10 11  1  0  0  0
 11 12  1  0  0  0
 12 13  1  0  0  0
 13 14  1  0  0  0
 14 15  1  0  0  0
  7  2  1  0  0  0
 15 10  1  0  0  0
 15  4  1  0  0  0
 13 16  1  0  0  0
M  END
> <minimizedAffinity>
-7.96432

> <CNNscore>
0.3539469242

> <CNNaffinity>
5.1274657249

> <CNN_VS>
1.8148506880

> <CNNaffinity_variance>
0.1536420882

$$$$
[H]N=C1c2c([H])nc([H])nc2C([H])([H])[C@](c2c([H])c(-c3c([H])nc([H])c(Cl)c3[H])c([H])c([H])c2F)(C([H])([H])[H])N1[H]


 28 31  0  0  0  0  0  0  0  0999 V2000
  -87.1191   30.0160   -1.8638 C   0  0  0  0  0  0  0  0  0  0  0  0
  -87.6542   30.4499   -0.5330 C   0  0  0  0  0  0  0  0  0  0  0  0
  -86.5757   30.2118    0.4955 C   0  0  0  0  0  0  0  0  0  0  0  0
  -85.3678   31.0011    0.1871 C   0  0  0  0  0  0  0  0  0  0  0  0
  -84.1556   30.5355    0.5500 N   0  0  0  0  0  0  0  0  0  0  0  0
  -83.0235   31.2186    0.3065 C   0  0  0  0  0  0  0  0  0  0  0  0
  -83.1398   32.4011   -0.3210 N   0  0  0  0  0  0  0  0  0  0  0  0
  -84.3387   32.9102   -0.7056 C   0  0  0  0  0  0  0  0  0  0  0  0
  -85.4848   32.2091   -0.4544 C   0  0  0  0  0  0  0  0  0  0  0  0
  -86.8061   32.7244   -0.8725 C   0  0  0  0  0  0  0  0  0  0  0  0
  -86.9417   33.8377   -1.4596 N   0  0  0  0  0  0  0  0  0  0  0  0
  -87.9096   31.8847   -0.5637 N   0  0  0  0  0  0  0  0  0  0  0  0
  -86.2453   34.5290   -1.7334 H   0  0  0  0  0  0  0  0  0  0  0  0
  -88.8371   32.3205   -0.3761 H   0  0  0  0  0  0  0  0  0  0  0  0
  -88.8724   29.6959   -0.1399 C   0  0  0  0  0  0  0  0  0  0  0  0
  -88.8618   28.7299    0.8417 C   0  0  0  0  0  0  0  0  0  0  0  0
  -90.0157   28.0328    1.1906 C   0  0  0  0  0  0  0  0  0  0  0  0
  -91.1845   28.3378    0.5201 C   0  0  0  0  0  0  0  0  0  0  0  0
  -91.2336   29.3104   -0.4797 C   0  0  0  0  0  0  0  0  0  0  0  0
  -90.0590   29.9694   -0.7839 C   0  0  0  0  0  0  0  0  0  0  0  0
  -90.0601   30.9290   -1.7553 F   0  0  0  0  0  0  0  0  0  0  0  0
  -90.0301   27.0060    2.2238 C   0  0  0  0  0  0  0  0  0  0  0  0
  -90.2007   25.6854    1.8737 C   0  0  0  0  0  0  0  0  0  0  0  0
  -90.2215   24.7052    2.8131 N   0  0  0  0  0  0  0  0  0  0  0  0
  -90.0777   24.9647    4.1291 C   0  0  0  0  0  0  0  0  0  0  0  0
  -89.9055   26.2702    4.5139 C   0  0  0  0  0  0  0  0  0  0  0  0
  -89.7186   26.6241    6.2120 Cl  0  0  0  0  0  0  0  0  0  0  0  0
  -89.8810   27.2945    3.5643 C   0  0  0  0  0  0  0  0  0  0  0  0
  2  1  1  0  0  0
  2 15  1  0  0  0
 15 16  2  0  0  0
 16 17  1  0  0  0
 17 22  1  0  0  0
 22 23  2  0  0  0
 23 24  1  0  0  0
 24 25  2  0  0  0
 25 26  1  0  0  0
 26 27  1  0  0  0
 26 28  2  0  0  0
 17 18  2  0  0  0
 18 19  1  0  0  0
 19 20  2  0  0  0
 20 21  1  0  0  0
  2  3  1  0  0  0
  3  4  1  0  0  0
  4  5  2  0  0  0
  5  6  1  0  0  0
  6  7  2  0  0  0
  7  8  1  0  0  0
  8  9  2  0  0  0
  9 10  1  0  0  0
 10 11  2  0  0  0
 10 12  1  0  0  0
 12  2  1  0  0  0
 20 15  1  0  0  0
  9  4  1  0  0  0
 28 22  1  0  0  0
 11 13  1  0  0  0
 12 14  1  0  0  0
M  END
> <minimizedAffinity>
-8.46666

> <CNNscore>
0.4562948644

> <CNNaffinity>
6.9256162643

> <CNN_VS>
3.1601231098

> <CNNaffinity_variance>
0.2971166372

$$$$
[H]N=C1c2c([H])nc([H])nc2C([H])([H])[C@](c2c([H])c(-c3c([H])nc([H])c(Cl)c3[H])c([H])c([H])c2F)(C([H])([H])[H])N1[H]


 28 31  0  0  0  0  0  0  0  0999 V2000
  -88.4513   33.2791   -4.5507 C   0  0  0  0  0  0  0  0  0  0  0  0
  -88.3504   33.8963   -3.1889 C   0  0  0  0  0  0  0  0  0  0  0  0
  -87.2800   34.9586   -3.2442 C   0  0  0  0  0  0  0  0  0  0  0  0
  -87.6284   36.0097   -4.2193 C   0  0  0  0  0  0  0  0  0  0  0  0
  -86.6479   36.6745   -4.8633 N   0  0  0  0  0  0  0  0  0  0  0  0
  -86.9073   37.6500   -5.7513 C   0  0  0  0  0  0  0  0  0  0  0  0
  -88.1974   37.9474   -5.9813 N   0  0  0  0  0  0  0  0  0  0  0  0
  -89.2184   37.3051   -5.3572 C   0  0  0  0  0  0  0  0  0  0  0  0
  -88.9460   36.3143   -4.4559 C   0  0  0  0  0  0  0  0  0  0  0  0
  -90.0318   35.5827   -3.7691 C   0  0  0  0  0  0  0  0  0  0  0  0
  -91.2539   35.8484   -3.9648 N   0  0  0  0  0  0  0  0  0  0  0  0
  -89.6054   34.5667   -2.8724 N   0  0  0  0  0  0  0  0  0  0  0  0
  -91.6902   36.5435   -4.5685 H   0  0  0  0  0  0  0  0  0  0  0  0
  -90.1958   34.3472   -2.0426 H   0  0  0  0  0  0  0  0  0  0  0  0
  -87.9932   32.9036   -2.1429 C   0  0  0  0  0  0  0  0  0  0  0  0
  -86.7183   32.7886   -1.6345 C   0  0  0  0  0  0  0  0  0  0  0  0
  -86.4058   31.8475   -0.6569 C   0  0  0  0  0  0  0  0  0  0  0  0
  -87.4177   31.0228   -0.2046 C   0  0  0  0  0  0  0  0  0  0  0  0
  -88.7211   31.1103   -0.6960 C   0  0  0  0  0  0  0  0  0  0  0  0
  -88.9729   32.0618   -1.6644 C   0  0  0  0  0  0  0  0  0  0  0  0
  -90.2339   32.1833   -2.1738 F   0  0  0  0  0  0  0  0  0  0  0  0
  -85.0654   31.7053   -0.1045 C   0  0  0  0  0  0  0  0  0  0  0  0
  -84.1359   32.7022   -0.2992 C   0  0  0  0  0  0  0  0  0  0  0  0
  -82.8776   32.5986    0.2002 N   0  0  0  0  0  0  0  0  0  0  0  0
  -82.4691   31.5256    0.9084 C   0  0  0  0  0  0  0  0  0  0  0  0
  -83.3696   30.5129    1.1218 C   0  0  0  0  0  0  0  0  0  0  0  0
  -82.8581   29.1172    2.0350 Cl  0  0  0  0  0  0  0  0  0  0  0  0
  -84.6694   30.5986    0.6170 C   0  0  0  0  0  0  0  0  0  0  0  0
  2  1  1  0  0  0
  2 15  1  0  0  0
 15 16  2  0  0  0
 16 17  1  0  0  0
 17 22  1  0  0  0
 22 23  2  0  0  0
 23 24  1  0  0  0
 24 25  2  0  0  0
 25 26  1  0  0  0
 26 27  1  0  0  0
 26 28  2  0  0  0
 17 18  2  0  0  0
 18 19  1  0  0  0
 19 20  2  0  0  0
 20 21  1  0  0  0
  2  3  1  0  0  0
  3  4  1  0  0  0
  4  5  2  0  0  0
  5  6  1  0  0  0
  6  7  2  0  0  0
  7  8  1  0  0  0
  8  9  2  0  0  0
  9 10  1  0  0  0
 10 11  2  0  0  0
 10 12  1  0  0  0
 12  2  1  0  0  0
 20 15  1  0  0  0
  9  4  1  0  0  0
 28 22  1  0  0  0
 11 13  1  0  0  0
 12 14  1  0  0  0
M  END
> <minimizedAffinity>
-9.21672

> <CNNscore>
0.4165577292

> <CNNaffinity>
6.5178160667

> <CNN_VS>
2.7150466442

> <CNNaffinity_variance>
0.1612421125

$$$$
[H]N=C1c2c([H])nc([H])nc2C([H])([H])[C@](c2c([H])c(-c3c([H])nc([H])c(Cl)c3[H])c([H])c([H])c2F)(C([H])([H])[H])N1[H]


 28 31  0  0  0  0  0  0  0  0999 V2000
  -87.2017   25.9794    0.0794 C   0  0  0  0  0  0  0  0  0  0  0  0
  -87.4551   27.1414    0.9910 C   0  0  0  0  0  0  0  0  0  0  0  0
  -88.5234   27.9982    0.3570 C   0  0  0  0  0  0  0  0  0  0  0  0
  -89.7786   27.2407    0.1903 C   0  0  0  0  0  0  0  0  0  0  0  0
  -90.6098   27.5416   -0.8277 N   0  0  0  0  0  0  0  0  0  0  0  0
  -91.7720   26.8935   -1.0193 C   0  0  0  0  0  0  0  0  0  0  0  0
  -92.0852   25.9188   -0.1489 N   0  0  0  0  0  0  0  0  0  0  0  0
  -91.2797   25.5804    0.8909 C   0  0  0  0  0  0  0  0  0  0  0  0
  -90.0997   26.2442    1.0783 C   0  0  0  0  0  0  0  0  0  0  0  0
  -89.1903   25.8926    2.1898 C   0  0  0  0  0  0  0  0  0  0  0  0
  -89.4659   24.9827    3.0256 N   0  0  0  0  0  0  0  0  0  0  0  0
  -87.9910   26.6513    2.2548 N   0  0  0  0  0  0  0  0  0  0  0  0
  -90.2802   24.3744    3.0951 H   0  0  0  0  0  0  0  0  0  0  0  0
  -87.5529   26.8221    3.1844 H   0  0  0  0  0  0  0  0  0  0  0  0
  -86.2387   27.9664    1.2074 C   0  0  0  0  0  0  0  0  0  0  0  0
  -86.0637   29.1984    0.6171 C   0  0  0  0  0  0  0  0  0  0  0  0
  -84.9127   29.9524    0.8314 C   0  0  0  0  0  0  0  0  0  0  0  0
  -83.9398   29.4280    1.6603 C   0  0  0  0  0  0  0  0  0  0  0  0
  -84.0821   28.1834    2.2758 C   0  0  0  0  0  0  0  0  0  0  0  0
  -85.2440   27.4802    2.0271 C   0  0  0  0  0  0  0  0  0  0  0  0
  -85.4263   26.2582    2.6084 F   0  0  0  0  0  0  0  0  0  0  0  0
  -84.7036   31.2568    0.2177 C   0  0  0  0  0  0  0  0  0  0  0  0
  -83.4546   31.8354    0.2493 C   0  0  0  0  0  0  0  0  0  0  0  0
  -83.2277   33.0512   -0.3110 N   0  0  0  0  0  0  0  0  0  0  0  0
  -84.2013   33.7553   -0.9245 C   0  0  0  0  0  0  0  0  0  0  0  0
  -85.4585   33.2087   -0.9747 C   0  0  0  0  0  0  0  0  0  0  0  0
  -86.7299   34.1057   -1.7638 Cl  0  0  0  0  0  0  0  0  0  0  0  0
  -85.7143   31.9591   -0.4047 C   0  0  0  0  0  0  0  0  0  0  0  0
  2  1  1  0  0  0
  2 15  1  0  0  0
 15 16  2  0  0  0
 16 17  1  0  0  0
 17 22  1  0  0  0
 22 23  2  0  0  0
 23 24  1  0  0  0
 24 25  2  0  0  0
 25 26  1  0  0  0
 26 27  1  0  0  0
 26 28  2  0  0  0
 17 18  2  0  0  0
 18 19  1  0  0  0
 19 20  2  0  0  0
 20 21  1  0  0  0
  2  3  1  0  0  0
  3  4  1  0  0  0
  4  5  2  0  0  0
  5  6  1  0  0  0
  6  7  2  0  0  0
  7  8  1  0  0  0
  8  9  2  0  0  0
  9 10  1  0  0  0
 10 11  2  0  0  0
 10 12  1  0  0  0
 12  2  1  0  0  0
 20 15  1  0  0  0
  9  4  1  0  0  0
 28 22  1  0  0  0
 11 13  1  0  0  0
 12 14  1  0  0  0
M  END
> <minimizedAffinity>
-9.22607

> <CNNscore>
0.3608426750

> <CNNaffinity>
6.8775253296

> <CNN_VS>
2.4817047119

> <CNNaffinity_variance>
0.1131746396

$$$$
[H]N=C1c2c([H])nc([H])nc2C([H])([H])[C@](c2c([H])c(-c3c([H])nc([H])c(Cl)c3[H])c([H])c([H])c2F)(C([H])([H])[H])N1[H]


 28 31  0  0  0  0  0  0  0  0999 V2000
  -90.6675   28.9171   -0.1688 C   0  0  0  0  0  0  0  0  0  0  0  0
  -89.4534   28.9450   -1.0467 C   0  0  0  0  0  0  0  0  0  0  0  0
  -88.5726   27.7856   -0.6497 C   0  0  0  0  0  0  0  0  0  0  0  0
  -89.2714   26.5006   -0.8435 C   0  0  0  0  0  0  0  0  0  0  0  0
  -88.9750   25.4531   -0.0480 N   0  0  0  0  0  0  0  0  0  0  0  0
  -89.5705   24.2559   -0.1883 C   0  0  0  0  0  0  0  0  0  0  0  0
  -90.4869   24.1336   -1.1635 N   0  0  0  0  0  0  0  0  0  0  0  0
  -90.8184   25.1602   -1.9885 C   0  0  0  0  0  0  0  0  0  0  0  0
  -90.2083   26.3742   -1.8389 C   0  0  0  0  0  0  0  0  0  0  0  0
  -90.5550   27.5189   -2.7081 C   0  0  0  0  0  0  0  0  0  0  0  0
  -91.4102   27.4267   -3.6368 N   0  0  0  0  0  0  0  0  0  0  0  0
  -89.8568   28.7244   -2.4299 N   0  0  0  0  0  0  0  0  0  0  0  0
  -91.9719   26.6331   -3.9409 H   0  0  0  0  0  0  0  0  0  0  0  0
  -89.6664   29.3877   -3.2104 H   0  0  0  0  0  0  0  0  0  0  0  0
  -88.6831   30.2077   -0.9069 C   0  0  0  0  0  0  0  0  0  0  0  0
  -87.3619   30.2310   -0.5185 C   0  0  0  0  0  0  0  0  0  0  0  0
  -86.6610   31.4274   -0.3902 C   0  0  0  0  0  0  0  0  0  0  0  0
  -87.3314   32.6036   -0.6653 C   0  0  0  0  0  0  0  0  0  0  0  0
  -88.6696   32.6192   -1.0614 C   0  0  0  0  0  0  0  0  0  0  0  0
  -89.3143   31.4031   -1.1717 C   0  0  0  0  0  0  0  0  0  0  0  0
  -90.6239   31.3703   -1.5566 F   0  0  0  0  0  0  0  0  0  0  0  0
  -85.2642   31.4784    0.0202 C   0  0  0  0  0  0  0  0  0  0  0  0
  -84.4992   32.5797   -0.2922 C   0  0  0  0  0  0  0  0  0  0  0  0
  -83.1938   32.6566    0.0733 N   0  0  0  0  0  0  0  0  0  0  0  0
  -82.5771   31.6701    0.7563 C   0  0  0  0  0  0  0  0  0  0  0  0
  -83.3096   30.5576    1.0845 C   0  0  0  0  0  0  0  0  0  0  0  0
  -82.5278   29.2717    1.9671 Cl  0  0  0  0  0  0  0  0  0  0  0  0
  -84.6541   30.4574    0.7184 C   0  0  0  0  0  0  0  0  0  0  0  0
  2  1  1  0  0  0
  2 15  1  0  0  0
 15 16  2  0  0  0
 16 17  1  0  0  0
 17 22  1  0  0  0
 22 23  2  0  0  0
 23 24  1  0  0  0
 24 25  2  0  0  0
 25 26  1  0  0  0
 26 27  1  0  0  0
 26 28  2  0  0  0
 17 18  2  0  0  0
 18 19  1  0  0  0
 19 20  2  0  0  0
 20 21  1  0  0  0
  2  3  1  0  0  0
  3  4  1  0  0  0
  4  5  2  0  0  0
  5  6  1  0  0  0
  6  7  2  0  0  0
  7  8  1  0  0  0
  8  9  2  0  0  0
  9 10  1  0  0  0
 10 11  2  0  0  0
 10 12  1  0  0  0
 12  2  1  0  0  0
 20 15  1  0  0  0
  9  4  1  0  0  0
 28 22  1  0  0  0
 11 13  1  0  0  0
 12 14  1  0  0  0
M  END
> <minimizedAffinity>
-9.37291

> <CNNscore>
0.1702637076

> <CNNaffinity>
6.2911887169

> <CNN_VS>
1.0711611509

> <CNNaffinity_variance>
0.1820735633

$$$$
[H]N=C1c2c([H])nc([H])nc2C([H])([H])[C@](c2c([H])c(-c3c([H])nc([H])c(Cl)c3[H])c([H])c([H])c2F)(C([H])([H])[H])N1[H]


 28 31  0  0  0  0  0  0  0  0999 V2000
  -88.2416   27.6650   -2.0863 C   0  0  0  0  0  0  0  0  0  0  0  0
  -88.6065   27.1495   -0.7274 C   0  0  0  0  0  0  0  0  0  0  0  0
  -90.0127   27.6065   -0.4250 C   0  0  0  0  0  0  0  0  0  0  0  0
  -90.9675   27.0665   -1.4119 C   0  0  0  0  0  0  0  0  0  0  0  0
  -92.0798   27.7651   -1.7161 N   0  0  0  0  0  0  0  0  0  0  0  0
  -92.9900   27.3151   -2.5973 C   0  0  0  0  0  0  0  0  0  0  0  0
  -92.7525   26.1258   -3.1759 N   0  0  0  0  0  0  0  0  0  0  0  0
  -91.6466   25.3868   -2.9013 C   0  0  0  0  0  0  0  0  0  0  0  0
  -90.7260   25.8518   -2.0043 C   0  0  0  0  0  0  0  0  0  0  0  0
  -89.5027   25.0823   -1.6924 C   0  0  0  0  0  0  0  0  0  0  0  0
  -89.2597   23.9575   -2.2200 N   0  0  0  0  0  0  0  0  0  0  0  0
  -88.6250   25.6923   -0.7565 N   0  0  0  0  0  0  0  0  0  0  0  0
  -89.7978   23.4135   -2.8925 H   0  0  0  0  0  0  0  0  0  0  0  0
  -88.0424   25.0849   -0.1425 H   0  0  0  0  0  0  0  0  0  0  0  0
  -87.6957   27.6538    0.3324 C   0  0  0  0  0  0  0  0  0  0  0  0
  -86.7273   28.6023    0.0880 C   0  0  0  0  0  0  0  0  0  0  0  0
  -85.8817   29.0571    1.0966 C   0  0  0  0  0  0  0  0  0  0  0  0
  -86.0402   28.5276    2.3627 C   0  0  0  0  0  0  0  0  0  0  0  0
  -87.0103   27.5655    2.6479 C   0  0  0  0  0  0  0  0  0  0  0  0
  -87.8202   27.1517    1.6091 C   0  0  0  0  0  0  0  0  0  0  0  0
  -88.7833   26.2123    1.8422 F   0  0  0  0  0  0  0  0  0  0  0  0
  -84.8493   30.0580    0.8631 C   0  0  0  0  0  0  0  0  0  0  0  0
  -83.5905   29.8784    1.3912 C   0  0  0  0  0  0  0  0  0  0  0  0
  -82.6074   30.7940    1.1941 N   0  0  0  0  0  0  0  0  0  0  0  0
  -82.8039   31.9199    0.4775 C   0  0  0  0  0  0  0  0  0  0  0  0
  -84.0467   32.1312   -0.0637 C   0  0  0  0  0  0  0  0  0  0  0  0
  -84.3188   33.5824   -0.9929 Cl  0  0  0  0  0  0  0  0  0  0  0  0
  -85.0728   31.2024    0.1266 C   0  0  0  0  0  0  0  0  0  0  0  0
  2  1  1  0  0  0
  2 15  1  0  0  0
 15 16  2  0  0  0
 16 17  1  0  0  0
 17 22  1  0  0  0
 22 23  2  0  0  0
 23 24  1  0  0  0
 24 25  2  0  0  0
 25 26  1  0  0  0
 26 27  1  0  0  0
 26 28  2  0  0  0
 17 18  2  0  0  0
 18 19  1  0  0  0
 19 20  2  0  0  0
 20 21  1  0  0  0
  2  3  1  0  0  0
  3  4  1  0  0  0
  4  5  2  0  0  0
  5  6  1  0  0  0
  6  7  2  0  0  0
  7  8  1  0  0  0
  8  9  2  0  0  0
  9 10  1  0  0  0
 10 11  2  0  0  0
 10 12  1  0  0  0
 12  2  1  0  0  0
 20 15  1  0  0  0
  9  4  1  0  0  0
 28 22  1  0  0  0
 11 13  1  0  0  0
 12 14  1  0  0  0
M  END
> <minimizedAffinity>
-8.41549

> <CNNscore>
0.1570123434

> <CNNaffinity>
6.1855306625

> <CNN_VS>
0.9712046385

> <CNNaffinity_variance>
0.2490152419

$$$$
[H]N=C1c2c([H])nc([H])nc2C([H])([H])[C@](c2c([H])c(-c3c([H])nc([H])c(Cl)c3[H])c([H])c([H])c2F)(C([H])([H])[H])N1[H]


 28 31  0  0  0  0  0  0  0  0999 V2000
  -90.2993   25.0229   -1.6876 C   0  0  0  0  0  0  0  0  0  0  0  0
  -89.8624   25.2419   -0.2710 C   0  0  0  0  0  0  0  0  0  0  0  0
  -91.0939   25.2045    0.6005 C   0  0  0  0  0  0  0  0  0  0  0  0
  -91.7682   23.8954    0.5066 C   0  0  0  0  0  0  0  0  0  0  0  0
  -93.1043   23.8195    0.6708 N   0  0  0  0  0  0  0  0  0  0  0  0
  -93.7685   22.6522    0.6090 C   0  0  0  0  0  0  0  0  0  0  0  0
  -93.0464   21.5435    0.3743 N   0  0  0  0  0  0  0  0  0  0  0  0
  -91.6995   21.5709    0.2021 C   0  0  0  0  0  0  0  0  0  0  0  0
  -91.0320   22.7619    0.2663 C   0  0  0  0  0  0  0  0  0  0  0  0
  -89.5685   22.8323    0.0682 C   0  0  0  0  0  0  0  0  0  0  0  0
  -88.8661   21.8016   -0.1485 N   0  0  0  0  0  0  0  0  0  0  0  0
  -89.0086   24.1357    0.1437 N   0  0  0  0  0  0  0  0  0  0  0  0
  -89.1361   20.8221   -0.2223 H   0  0  0  0  0  0  0  0  0  0  0  0
  -88.0304   24.2446    0.4852 H   0  0  0  0  0  0  0  0  0  0  0  0
  -89.1780   26.5474   -0.0854 C   0  0  0  0  0  0  0  0  0  0  0  0
  -87.9292   26.6552    0.4853 C   0  0  0  0  0  0  0  0  0  0  0  0
  -87.3087   27.8905    0.6529 C   0  0  0  0  0  0  0  0  0  0  0  0
  -87.9845   29.0179    0.2275 C   0  0  0  0  0  0  0  0  0  0  0  0
  -89.2507   28.9476   -0.3553 C   0  0  0  0  0  0  0  0  0  0  0  0
  -89.8173   27.6964   -0.4960 C   0  0  0  0  0  0  0  0  0  0  0  0
  -91.0548   27.5798   -1.0613 F   0  0  0  0  0  0  0  0  0  0  0  0
  -85.9896   28.0309    1.2548 C   0  0  0  0  0  0  0  0  0  0  0  0
  -85.4691   27.0035    2.0094 C   0  0  0  0  0  0  0  0  0  0  0  0
  -84.2439   27.1045    2.5859 N   0  0  0  0  0  0  0  0  0  0  0  0
  -83.4738   28.2043    2.4547 C   0  0  0  0  0  0  0  0  0  0  0  0
  -83.9612   29.2477    1.7093 C   0  0  0  0  0  0  0  0  0  0  0  0
  -82.9789   30.6781    1.5296 Cl  0  0  0  0  0  0  0  0  0  0  0  0
  -85.2192   29.1653    1.1072 C   0  0  0  0  0  0  0  0  0  0  0  0
  2  1  1  0  0  0
  2 15  1  0  0  0
 15 16  2  0  0  0
 16 17  1  0  0  0
 17 22  1  0  0  0
 22 23  2  0  0  0
 23 24  1  0  0  0
 24 25  2  0  0  0
 25 26  1  0  0  0
 26 27  1  0  0  0
 26 28  2  0  0  0
 17 18  2  0  0  0
 18 19  1  0  0  0
 19 20  2  0  0  0
 20 21  1  0  0  0
  2  3  1  0  0  0
  3  4  1  0  0  0
  4  5  2  0  0  0
  5  6  1  0  0  0
  6  7  2  0  0  0
  7  8  1  0  0  0
  8  9  2  0  0  0
  9 10  1  0  0  0
 10 11  2  0  0  0
 10 12  1  0  0  0
 12  2  1  0  0  0
 20 15  1  0  0  0
  9  4  1  0  0  0
 28 22  1  0  0  0
 11 13  1  0  0  0
 12 14  1  0  0  0
M  END
> <minimizedAffinity>
-9.21165

> <CNNscore>
0.1460852772

> <CNNaffinity>
6.0758581161

> <CNN_VS>
0.8875933886

> <CNNaffinity_variance>
0.2019172162

$$$$
[H]N=C1c2c([H])nc([H])nc2C([H])([H])[C@](c2c([H])c(-c3c([H])nc([H])c(Cl)c3[H])c([H])c([H])c2F)(C([H])([H])[H])N1[H]


 28 31  0  0  0  0  0  0  0  0999 V2000
  -86.6368   28.7694   -1.1440 C   0  0  0  0  0  0  0  0  0  0  0  0
  -87.3472   29.2225    0.0953 C   0  0  0  0  0  0  0  0  0  0  0  0
  -86.4555   28.9166    1.2737 C   0  0  0  0  0  0  0  0  0  0  0  0
  -85.1735   29.6393    1.1680 C   0  0  0  0  0  0  0  0  0  0  0  0
  -84.0590   29.1040    1.7058 N   0  0  0  0  0  0  0  0  0  0  0  0
  -82.8676   29.7245    1.6508 C   0  0  0  0  0  0  0  0  0  0  0  0
  -82.8211   30.9163    1.0320 N   0  0  0  0  0  0  0  0  0  0  0  0
  -83.9167   31.4946    0.4754 C   0  0  0  0  0  0  0  0  0  0  0  0
  -85.1242   30.8568    0.5356 C   0  0  0  0  0  0  0  0  0  0  0  0
  -86.3349   31.4484   -0.0728 C   0  0  0  0  0  0  0  0  0  0  0  0
  -86.3176   32.5720   -0.6557 N   0  0  0  0  0  0  0  0  0  0  0  0
  -87.5168   30.6695    0.0487 N   0  0  0  0  0  0  0  0  0  0  0  0
  -85.5508   33.2253   -0.8077 H   0  0  0  0  0  0  0  0  0  0  0  0
  -88.4371   31.1551    0.0980 H   0  0  0  0  0  0  0  0  0  0  0  0
  -88.6506   28.5349    0.2836 C   0  0  0  0  0  0  0  0  0  0  0  0
  -88.7994   27.4407    1.1068 C   0  0  0  0  0  0  0  0  0  0  0  0
  -90.0307   26.8097    1.2647 C   0  0  0  0  0  0  0  0  0  0  0  0
  -91.1113   27.3141    0.5673 C   0  0  0  0  0  0  0  0  0  0  0  0
  -90.9987   28.4208   -0.2756 C   0  0  0  0  0  0  0  0  0  0  0  0
  -89.7537   29.0061   -0.3937 C   0  0  0  0  0  0  0  0  0  0  0  0
  -89.5969   30.0916   -1.2070 F   0  0  0  0  0  0  0  0  0  0  0  0
  -90.2134   25.6506    2.1279 C   0  0  0  0  0  0  0  0  0  0  0  0
  -91.2806   24.8054    1.9216 C   0  0  0  0  0  0  0  0  0  0  0  0
  -91.4802   23.7184    2.7104 N   0  0  0  0  0  0  0  0  0  0  0  0
  -90.6543   23.4063    3.7304 C   0  0  0  0  0  0  0  0  0  0  0  0
  -89.5802   24.2269    3.9646 C   0  0  0  0  0  0  0  0  0  0  0  0
  -88.5020   23.8387    5.2801 Cl  0  0  0  0  0  0  0  0  0  0  0  0
  -89.3557   25.3506    3.1655 C   0  0  0  0  0  0  0  0  0  0  0  0
  2  1  1  0  0  0
  2 15  1  0  0  0
 15 16  2  0  0  0
 16 17  1  0  0  0
 17 22  1  0  0  0
 22 23  2  0  0  0
 23 24  1  0  0  0
 24 25  2  0  0  0
 25 26  1  0  0  0
 26 27  1  0  0  0
 26 28  2  0  0  0
 17 18  2  0  0  0
 18 19  1  0  0  0
 19 20  2  0  0  0
 20 21  1  0  0  0
  2  3  1  0  0  0
  3  4  1  0  0  0
  4  5  2  0  0  0
  5  6  1  0  0  0
  6  7  2  0  0  0
  7  8  1  0  0  0
  8  9  2  0  0  0
  9 10  1  0  0  0
 10 11  2  0  0  0
 10 12  1  0  0  0
 12  2  1  0  0  0
 20 15  1  0  0  0
  9  4  1  0  0  0
 28 22  1  0  0  0
 11 13  1  0  0  0
 12 14  1  0  0  0
M  END
> <minimizedAffinity>
-8.72609

> <CNNscore>
0.1230979636

> <CNNaffinity>
6.4353933334

> <CNN_VS>
0.7921838164

> <CNNaffinity_variance>
0.5070220232

$$$$
[H]N=C1c2c([H])nc([H])nc2C([H])([H])[C@](c2c([H])c(-c3c([H])nc([H])c(Cl)c3[H])c([H])c([H])c2F)(C([H])([H])[H])N1[H]


 28 31  0  0  0  0  0  0  0  0999 V2000
  -89.8397   27.4682    0.5607 C   0  0  0  0  0  0  0  0  0  0  0  0
  -88.5079   27.1125   -0.0269 C   0  0  0  0  0  0  0  0  0  0  0  0
  -88.2711   25.6439    0.2273 C   0  0  0  0  0  0  0  0  0  0  0  0
  -89.3120   24.8213   -0.4185 C   0  0  0  0  0  0  0  0  0  0  0  0
  -89.6629   23.6395    0.1274 N   0  0  0  0  0  0  0  0  0  0  0  0
  -90.5949   22.8435   -0.4252 C   0  0  0  0  0  0  0  0  0  0  0  0
  -91.1763   23.2701   -1.5591 N   0  0  0  0  0  0  0  0  0  0  0  0
  -90.8559   24.4526   -2.1452 C   0  0  0  0  0  0  0  0  0  0  0  0
  -89.9074   25.2560   -1.5766 C   0  0  0  0  0  0  0  0  0  0  0  0
  -89.5441   26.5570   -2.1776 C   0  0  0  0  0  0  0  0  0  0  0  0
  -90.0733   26.9777   -3.2478 N   0  0  0  0  0  0  0  0  0  0  0  0
  -88.5570   27.2961   -1.4721 N   0  0  0  0  0  0  0  0  0  0  0  0
  -90.7793   26.5527   -3.8468 H   0  0  0  0  0  0  0  0  0  0  0  0
  -87.9224   27.9264   -2.0062 H   0  0  0  0  0  0  0  0  0  0  0  0
  -87.3968   27.8930    0.5760 C   0  0  0  0  0  0  0  0  0  0  0  0
  -86.9563   29.0859    0.0469 C   0  0  0  0  0  0  0  0  0  0  0  0
  -85.9099   29.7983    0.6271 C   0  0  0  0  0  0  0  0  0  0  0  0
  -85.3181   29.2729    1.7595 C   0  0  0  0  0  0  0  0  0  0  0  0
  -85.7376   28.0674    2.3241 C   0  0  0  0  0  0  0  0  0  0  0  0
  -86.7792   27.4043    1.7063 C   0  0  0  0  0  0  0  0  0  0  0  0
  -87.2230   26.2214    2.2242 F   0  0  0  0  0  0  0  0  0  0  0  0
  -85.4250   31.0607    0.0858 C   0  0  0  0  0  0  0  0  0  0  0  0
  -84.1192   31.4408    0.3008 C   0  0  0  0  0  0  0  0  0  0  0  0
  -83.6376   32.6125   -0.1879 N   0  0  0  0  0  0  0  0  0  0  0  0
  -84.4012   33.4629   -0.9045 C   0  0  0  0  0  0  0  0  0  0  0  0
  -85.7077   33.1159   -1.1381 C   0  0  0  0  0  0  0  0  0  0  0  0
  -86.7100   34.2043   -2.0625 Cl  0  0  0  0  0  0  0  0  0  0  0  0
  -86.2241   31.9152   -0.6446 C   0  0  0  0  0  0  0  0  0  0  0  0
  2  1  1  0  0  0
  2 15  1  0  0  0
 15 16  2  0  0  0
 16 17  1  0  0  0
 17 22  1  0  0  0
 22 23  2  0  0  0
 23 24  1  0  0  0
 24 25  2  0  0  0
 25 26  1  0  0  0
 26 27  1  0  0  0
 26 28  2  0  0  0
 17 18  2  0  0  0
 18 19  1  0  0  0
 19 20  2  0  0  0
 20 21  1  0  0  0
  2  3  1  0  0  0
  3  4  1  0  0  0
  4  5  2  0  0  0
  5  6  1  0  0  0
  6  7  2  0  0  0
  7  8  1  0  0  0
  8  9  2  0  0  0
  9 10  1  0  0  0
 10 11  2  0  0  0
 10 12  1  0  0  0
 12  2  1  0  0  0
 20 15  1  0  0  0
  9  4  1  0  0  0
 28 22  1  0  0  0
 11 13  1  0  0  0
 12 14  1  0  0  0
M  END
> <minimizedAffinity>
-8.92741

> <CNNscore>
0.1100698188

> <CNNaffinity>
5.9754495621

> <CNN_VS>
0.6577166319

> <CNNaffinity_variance>
0.2492543459

$$$$
[H]N=C1c2c([H])nc([H])nc2C([H])([H])[C@](c2c([H])c(-c3c([H])nc([H])c(Cl)c3[H])c([H])c([H])c2F)(C([H])([H])[H])N1[H]


 28 31  0  0  0  0  0  0  0  0999 V2000
  -88.1570   29.8014   -2.2553 C   0  0  0  0  0  0  0  0  0  0  0  0
  -88.7821   30.1865   -0.9490 C   0  0  0  0  0  0  0  0  0  0  0  0
  -87.6677   30.5097    0.0160 C   0  0  0  0  0  0  0  0  0  0  0  0
  -86.8548   31.6391   -0.4747 C   0  0  0  0  0  0  0  0  0  0  0  0
  -85.5477   31.7106   -0.1518 N   0  0  0  0  0  0  0  0  0  0  0  0
  -84.7633   32.7234   -0.5598 C   0  0  0  0  0  0  0  0  0  0  0  0
  -85.3327   33.6795   -1.3130 N   0  0  0  0  0  0  0  0  0  0  0  0
  -86.6444   33.6498   -1.6637 C   0  0  0  0  0  0  0  0  0  0  0  0
  -87.4349   32.6164   -1.2448 C   0  0  0  0  0  0  0  0  0  0  0  0
  -88.8631   32.5425   -1.6201 C   0  0  0  0  0  0  0  0  0  0  0  0
  -89.4233   33.4334   -2.3236 N   0  0  0  0  0  0  0  0  0  0  0  0
  -89.5603   31.4055   -1.1308 N   0  0  0  0  0  0  0  0  0  0  0  0
  -89.0461   34.2882   -2.7297 H   0  0  0  0  0  0  0  0  0  0  0  0
  -90.5786   31.4885   -0.9269 H   0  0  0  0  0  0  0  0  0  0  0  0
  -89.6158   29.0975   -0.3779 C   0  0  0  0  0  0  0  0  0  0  0  0
  -89.4742   28.6582    0.9198 C   0  0  0  0  0  0  0  0  0  0  0  0
  -90.2644   27.6325    1.4323 C   0  0  0  0  0  0  0  0  0  0  0  0
  -91.2046   27.0602    0.5974 C   0  0  0  0  0  0  0  0  0  0  0  0
  -91.3768   27.4790   -0.7229 C   0  0  0  0  0  0  0  0  0  0  0  0
  -90.5653   28.4997   -1.1771 C   0  0  0  0  0  0  0  0  0  0  0  0
  -90.6990   28.9420   -2.4619 F   0  0  0  0  0  0  0  0  0  0  0  0
  -90.1329   27.1494    2.8002 C   0  0  0  0  0  0  0  0  0  0  0  0
  -90.6411   27.8943    3.8407 C   0  0  0  0  0  0  0  0  0  0  0  0
  -90.5322   27.4730    5.1269 N   0  0  0  0  0  0  0  0  0  0  0  0
  -89.9271   26.3134    5.4569 C   0  0  0  0  0  0  0  0  0  0  0  0
  -89.4093   25.5454    4.4450 C   0  0  0  0  0  0  0  0  0  0  0  0
  -88.6227   24.0428    4.8536 Cl  0  0  0  0  0  0  0  0  0  0  0  0
  -89.5100   25.9597    3.1145 C   0  0  0  0  0  0  0  0  0  0  0  0
  2  1  1  0  0  0
  2 15  1  0  0  0
 15 16  2  0  0  0
 16 17  1  0  0  0
 17 22  1  0  0  0
 22 23  2  0  0  0
 23 24  1  0  0  0
 24 25  2  0  0  0
 25 26  1  0  0  0
 26 27  1  0  0  0
 26 28  2  0  0  0
 17 18  2  0  0  0
 18 19  1  0  0  0
 19 20  2  0  0  0
 20 21  1  0  0  0
  2  3  1  0  0  0
  3  4  1  0  0  0
  4  5  2  0  0  0
  5  6  1  0  0  0
  6  7  2  0  0  0
  7  8  1  0  0  0
  8  9  2  0  0  0
  9 10  1  0  0  0
 10 11  2  0  0  0
 10 12  1  0  0  0
 12  2  1  0  0  0
 20 15  1  0  0  0
  9  4  1  0  0  0
 28 22  1  0  0  0
 11 13  1  0  0  0
 12 14  1  0  0  0
M  END
> <minimizedAffinity>
-8.51302

> <CNNscore>
0.1097248197

> <CNNaffinity>
5.9751291275

> <CNN_VS>
0.6556199789

> <CNNaffinity_variance>
0.2148677856

$$$$
[H]/C(C(=O)/C([H])=C(\[H])c1c([H])c([H])c(F)c([H])c1[H])=C(/[H])c1c([H])c([H])c(F)c([H])c1[H]


 20 21  0  0  0  0  0  0  0  0999 V2000
  -88.4114   33.5872   -2.1012 O   0  0  0  0  0  0  0  0  0  0  0  0
  -87.1264   33.7978   -2.3476 C   0  0  0  0  0  0  0  0  0  0  0  0
  -86.9156   34.7872   -3.3314 C   0  0  0  0  0  0  0  0  0  0  0  0
  -87.6185   35.2041   -4.3392 C   0  0  0  0  0  0  0  0  0  0  0  0
  -87.1846   36.2795   -5.2552 C   0  0  0  0  0  0  0  0  0  0  0  0
  -87.6825   36.2534   -6.5648 C   0  0  0  0  0  0  0  0  0  0  0  0
  -87.3465   37.2005   -7.4973 C   0  0  0  0  0  0  0  0  0  0  0  0
  -86.4975   38.2064   -7.1425 C   0  0  0  0  0  0  0  0  0  0  0  0
  -86.1577   39.1546   -8.0668 F   0  0  0  0  0  0  0  0  0  0  0  0
  -86.0012   38.2419   -5.8551 C   0  0  0  0  0  0  0  0  0  0  0  0
  -86.3471   37.2762   -4.9135 C   0  0  0  0  0  0  0  0  0  0  0  0
  -86.2738   32.9915   -1.5764 C   0  0  0  0  0  0  0  0  0  0  0  0
  -86.3594   32.6313   -0.3344 C   0  0  0  0  0  0  0  0  0  0  0  0
  -85.3401   31.7691    0.2833 C   0  0  0  0  0  0  0  0  0  0  0  0
  -85.5814   30.6184    0.9501 C   0  0  0  0  0  0  0  0  0  0  0  0
  -84.5727   29.8314    1.5216 C   0  0  0  0  0  0  0  0  0  0  0  0
  -83.2667   30.2313    1.4100 C   0  0  0  0  0  0  0  0  0  0  0  0
  -82.2406   29.5221    1.9366 F   0  0  0  0  0  0  0  0  0  0  0  0
  -83.0020   31.4134    0.7267 C   0  0  0  0  0  0  0  0  0  0  0  0
  -83.9967   32.1678    0.1762 C   0  0  0  0  0  0  0  0  0  0  0  0
  1  2  2  0  0  0
  2  3  1  0  0  0
  3  4  2  0  0  0
  4  5  1  0  0  0
  5  6  2  0  0  0
  6  7  1  0  0  0
  7  8  2  0  0  0
  8  9  1  0  0  0
  8 10  1  0  0  0
 10 11  2  0  0  0
  2 12  1  0  0  0
 12 13  2  0  0  0
 13 14  1  0  0  0
 14 15  2  0  0  0
 15 16  1  0  0  0
 16 17  2  0  0  0
 17 18  1  0  0  0
 17 19  1  0  0  0
 19 20  2  0  0  0
 11  5  1  0  0  0
 20 14  1  0  0  0
M  END
> <minimizedAffinity>
-7.62868

> <CNNscore>
0.5224304795

> <CNNaffinity>
5.0376620293

> <CNN_VS>
2.6318283081

> <CNNaffinity_variance>
0.2822219133

$$$$
[H]/C(C(=O)/C([H])=C(\[H])c1c([H])c([H])c(F)c([H])c1[H])=C(/[H])c1c([H])c([H])c(F)c([H])c1[H]


 20 21  0  0  0  0  0  0  0  0999 V2000
  -83.8745   34.1583   -0.8934 O   0  0  0  0  0  0  0  0  0  0  0  0
  -84.7436   33.1715   -1.0583 C   0  0  0  0  0  0  0  0  0  0  0  0
  -85.7690   33.4961   -1.9719 C   0  0  0  0  0  0  0  0  0  0  0  0
  -86.8892   34.1410   -1.8600 C   0  0  0  0  0  0  0  0  0  0  0  0
  -87.8258   34.3624   -2.9815 C   0  0  0  0  0  0  0  0  0  0  0  0
  -87.2862   34.8050   -4.1967 C   0  0  0  0  0  0  0  0  0  0  0  0
  -88.0621   35.0422   -5.3017 C   0  0  0  0  0  0  0  0  0  0  0  0
  -89.4082   34.8416   -5.2205 C   0  0  0  0  0  0  0  0  0  0  0  0
  -90.1885   35.0761   -6.3183 F   0  0  0  0  0  0  0  0  0  0  0  0
  -89.9502   34.4057   -4.0285 C   0  0  0  0  0  0  0  0  0  0  0  0
  -89.1555   34.1670   -2.9104 C   0  0  0  0  0  0  0  0  0  0  0  0
  -84.4456   32.0349   -0.2895 C   0  0  0  0  0  0  0  0  0  0  0  0
  -85.1277   31.4566    0.6485 C   0  0  0  0  0  0  0  0  0  0  0  0
  -84.6210   30.2574    1.3334 C   0  0  0  0  0  0  0  0  0  0  0  0
  -85.3800   29.2597    1.8390 C   0  0  0  0  0  0  0  0  0  0  0  0
  -84.8473   28.1357    2.4842 C   0  0  0  0  0  0  0  0  0  0  0  0
  -83.4884   28.0225    2.6202 C   0  0  0  0  0  0  0  0  0  0  0  0
  -82.9035   26.9655    3.2315 F   0  0  0  0  0  0  0  0  0  0  0  0
  -82.6937   29.0410    2.1052 C   0  0  0  0  0  0  0  0  0  0  0  0
  -83.2291   30.1290    1.4797 C   0  0  0  0  0  0  0  0  0  0  0  0
  1  2  2  0  0  0
  2  3  1  0  0  0
  3  4  2  0  0  0
  4  5  1  0  0  0
  5  6  2  0  0  0
  6  7  1  0  0  0
  7  8  2  0  0  0
  8  9  1  0  0  0
  8 10  1  0  0  0
 10 11  2  0  0  0
  2 12  1  0  0  0
 12 13  2  0  0  0
 13 14  1  0  0  0
 14 15  2  0  0  0
 15 16  1  0  0  0
 16 17  2  0  0  0
 17 18  1  0  0  0
 17 19  1  0  0  0
 19 20  2  0  0  0
 11  5  1  0  0  0
 20 14  1  0  0  0
M  END
> <minimizedAffinity>
-8.11665

> <CNNscore>
0.4731647670

> <CNNaffinity>
5.0988869667

> <CNN_VS>
2.4126136303

> <CNNaffinity_variance>
0.3508592248

$$$$
[H]/C(C(=O)/C([H])=C(\[H])c1c([H])c([H])c(F)c([H])c1[H])=C(/[H])c1c([H])c([H])c(F)c([H])c1[H]


 20 21  0  0  0  0  0  0  0  0999 V2000
  -89.9459   26.8864    2.3595 O   0  0  0  0  0  0  0  0  0  0  0  0
  -88.6727   26.6570    2.6471 C   0  0  0  0  0  0  0  0  0  0  0  0
  -88.4769   25.4248    3.3064 C   0  0  0  0  0  0  0  0  0  0  0  0
  -89.0443   24.8626    4.3289 C   0  0  0  0  0  0  0  0  0  0  0  0
  -88.6634   23.5343    4.8530 C   0  0  0  0  0  0  0  0  0  0  0  0
  -89.1678   22.4082    4.1887 C   0  0  0  0  0  0  0  0  0  0  0  0
  -88.8791   21.1292    4.5887 C   0  0  0  0  0  0  0  0  0  0  0  0
  -88.0724   20.9405    5.6713 C   0  0  0  0  0  0  0  0  0  0  0  0
  -87.7800   19.6679    6.0762 F   0  0  0  0  0  0  0  0  0  0  0  0
  -87.5699   22.0426    6.3330 C   0  0  0  0  0  0  0  0  0  0  0  0
  -87.8678   23.3388    5.9207 C   0  0  0  0  0  0  0  0  0  0  0  0
  -87.8150   27.6882    2.2314 C   0  0  0  0  0  0  0  0  0  0  0  0
  -86.5464   27.6663    1.9674 C   0  0  0  0  0  0  0  0  0  0  0  0
  -85.8335   28.8803    1.5410 C   0  0  0  0  0  0  0  0  0  0  0  0
  -84.6972   29.3609    2.0931 C   0  0  0  0  0  0  0  0  0  0  0  0
  -84.0555   30.5248    1.6491 C   0  0  0  0  0  0  0  0  0  0  0  0
  -84.5916   31.2273    0.6017 C   0  0  0  0  0  0  0  0  0  0  0  0
  -84.0268   32.3595    0.1197 F   0  0  0  0  0  0  0  0  0  0  0  0
  -85.7607   30.7457    0.0228 C   0  0  0  0  0  0  0  0  0  0  0  0
  -86.3726   29.6103    0.4679 C   0  0  0  0  0  0  0  0  0  0  0  0
  1  2  2  0  0  0
  2  3  1  0  0  0
  3  4  2  0  0  0
  4  5  1  0  0  0
  5  6  2  0  0  0
  6  7  1  0  0  0
  7  8  2  0  0  0
  8  9  1  0  0  0
  8 10  1  0  0  0
 10 11  2  0  0  0
  2 12  1  0  0  0
 12 13  2  0  0  0
 13 14  1  0  0  0
 14 15  2  0  0  0
 15 16  1  0  0  0
 16 17  2  0  0  0
 17 18  1  0  0  0
 17 19  1  0  0  0
 19 20  2  0  0  0
 11  5  1  0  0  0
 20 14  1  0  0  0
M  END
> <minimizedAffinity>
-6.96449

> <CNNscore>
0.4214730263

> <CNNaffinity>
4.8719058037

> <CNN_VS>
2.0533769131

> <CNNaffinity_variance>
0.4128110409

$$$$
[H]/C(C(=O)/C([H])=C(\[H])c1c([H])c([H])c(F)c([H])c1[H])=C(/[H])c1c([H])c([H])c(F)c([H])c1[H]


 20 21  0  0  0  0  0  0  0  0999 V2000
  -84.7170   34.0934   -0.7143 O   0  0  0  0  0  0  0  0  0  0  0  0
  -85.7515   33.3047   -0.9674 C   0  0  0  0  0  0  0  0  0  0  0  0
  -86.7053   33.9119   -1.8117 C   0  0  0  0  0  0  0  0  0  0  0  0
  -86.9193   33.8657   -3.0906 C   0  0  0  0  0  0  0  0  0  0  0  0
  -88.0046   34.6039   -3.7696 C   0  0  0  0  0  0  0  0  0  0  0  0
  -87.8020   34.9647   -5.1085 C   0  0  0  0  0  0  0  0  0  0  0  0
  -88.7411   35.6505   -5.8344 C   0  0  0  0  0  0  0  0  0  0  0  0
  -89.9166   35.9964   -5.2367 C   0  0  0  0  0  0  0  0  0  0  0  0
  -90.8580   36.6804   -5.9542 F   0  0  0  0  0  0  0  0  0  0  0  0
  -90.1267   35.6461   -3.9184 C   0  0  0  0  0  0  0  0  0  0  0  0
  -89.1679   34.9494   -3.1875 C   0  0  0  0  0  0  0  0  0  0  0  0
  -85.6610   32.0517   -0.3401 C   0  0  0  0  0  0  0  0  0  0  0  0
  -84.8411   31.6286    0.5701 C   0  0  0  0  0  0  0  0  0  0  0  0
  -84.9241   30.2573    1.0956 C   0  0  0  0  0  0  0  0  0  0  0  0
  -84.0490   29.6891    1.9549 C   0  0  0  0  0  0  0  0  0  0  0  0
  -84.1730   28.3756    2.4269 C   0  0  0  0  0  0  0  0  0  0  0  0
  -85.2295   27.6100    2.0079 C   0  0  0  0  0  0  0  0  0  0  0  0
  -85.4133   26.3341    2.4218 F   0  0  0  0  0  0  0  0  0  0  0  0
  -86.1389   28.1804    1.1236 C   0  0  0  0  0  0  0  0  0  0  0  0
  -86.0029   29.4613    0.6738 C   0  0  0  0  0  0  0  0  0  0  0  0
  1  2  2  0  0  0
  2  3  1  0  0  0
  3  4  2  0  0  0
  4  5  1  0  0  0
  5  6  2  0  0  0
  6  7  1  0  0  0
  7  8  2  0  0  0
  8  9  1  0  0  0
  8 10  1  0  0  0
 10 11  2  0  0  0
  2 12  1  0  0  0
 12 13  2  0  0  0
 13 14  1  0  0  0
 14 15  2  0  0  0
 15 16  1  0  0  0
 16 17  2  0  0  0
 17 18  1  0  0  0
 17 19  1  0  0  0
 19 20  2  0  0  0
 11  5  1  0  0  0
 20 14  1  0  0  0
M  END
> <minimizedAffinity>
-7.02060

> <CNNscore>
0.4101323783

> <CNNaffinity>
5.0785145760

> <CNN_VS>
2.0828633308

> <CNNaffinity_variance>
0.1696578860

$$$$
[H]/C(C(=O)/C([H])=C(\[H])c1c([H])c([H])c(F)c([H])c1[H])=C(/[H])c1c([H])c([H])c(F)c([H])c1[H]


 20 21  0  0  0  0  0  0  0  0999 V2000
  -89.3605   32.4730   -0.6171 O   0  0  0  0  0  0  0  0  0  0  0  0
  -88.2012   32.5847   -1.2494 C   0  0  0  0  0  0  0  0  0  0  0  0
  -87.1545   31.9042   -0.5917 C   0  0  0  0  0  0  0  0  0  0  0  0
  -85.9692   32.2593   -0.2012 C   0  0  0  0  0  0  0  0  0  0  0  0
  -85.0240   31.3536    0.4845 C   0  0  0  0  0  0  0  0  0  0  0  0
  -83.6556   31.6226    0.3467 C   0  0  0  0  0  0  0  0  0  0  0  0
  -82.6918   30.8483    0.9392 C   0  0  0  0  0  0  0  0  0  0  0  0
  -83.0732   29.7767    1.6906 C   0  0  0  0  0  0  0  0  0  0  0  0
  -82.1179   28.9999    2.2845 F   0  0  0  0  0  0  0  0  0  0  0  0
  -84.4184   29.5027    1.8330 C   0  0  0  0  0  0  0  0  0  0  0  0
  -85.3916   30.2938    1.2281 C   0  0  0  0  0  0  0  0  0  0  0  0
  -88.2806   33.3510   -2.4234 C   0  0  0  0  0  0  0  0  0  0  0  0
  -87.5217   34.3116   -2.8488 C   0  0  0  0  0  0  0  0  0  0  0  0
  -87.7899   34.9885   -4.1269 C   0  0  0  0  0  0  0  0  0  0  0  0
  -86.9896   35.9051   -4.7155 C   0  0  0  0  0  0  0  0  0  0  0  0
  -87.2910   36.5223   -5.9368 C   0  0  0  0  0  0  0  0  0  0  0  0
  -88.4529   36.1937   -6.5848 C   0  0  0  0  0  0  0  0  0  0  0  0
  -88.8092   36.7490   -7.7671 F   0  0  0  0  0  0  0  0  0  0  0  0
  -89.2872   35.2520   -5.9920 C   0  0  0  0  0  0  0  0  0  0  0  0
  -88.9782   34.6606   -4.8019 C   0  0  0  0  0  0  0  0  0  0  0  0
  1  2  2  0  0  0
  2  3  1  0  0  0
  3  4  2  0  0  0
  4  5  1  0  0  0
  5  6  2  0  0  0
  6  7  1  0  0  0
  7  8  2  0  0  0
  8  9  1  0  0  0
  8 10  1  0  0  0
 10 11  2  0  0  0
  2 12  1  0  0  0
 12 13  2  0  0  0
 13 14  1  0  0  0
 14 15  2  0  0  0
 15 16  1  0  0  0
 16 17  2  0  0  0
 17 18  1  0  0  0
 17 19  1  0  0  0
 19 20  2  0  0  0
 11  5  1  0  0  0
 20 14  1  0  0  0
M  END
> <minimizedAffinity>
-8.12753

> <CNNscore>
0.3946238756

> <CNNaffinity>
4.9355382919

> <CNN_VS>
1.9476813078

> <CNNaffinity_variance>
0.4021990895

$$$$
[H]/C(C(=O)/C([H])=C(\[H])c1c([H])c([H])c(F)c([H])c1[H])=C(/[H])c1c([H])c([H])c(F)c([H])c1[H]


 20 21  0  0  0  0  0  0  0  0999 V2000
  -89.2839   32.5539   -0.5881 O   0  0  0  0  0  0  0  0  0  0  0  0
  -88.1233   32.6223   -1.2243 C   0  0  0  0  0  0  0  0  0  0  0  0
  -88.1954   33.3877   -2.4077 C   0  0  0  0  0  0  0  0  0  0  0  0
  -87.5680   34.4444   -2.8237 C   0  0  0  0  0  0  0  0  0  0  0  0
  -87.8166   35.0864   -4.1314 C   0  0  0  0  0  0  0  0  0  0  0  0
  -89.0045   34.7571   -4.7979 C   0  0  0  0  0  0  0  0  0  0  0  0
  -89.3362   35.2928   -6.0154 C   0  0  0  0  0  0  0  0  0  0  0  0
  -88.4828   36.1787   -6.6032 C   0  0  0  0  0  0  0  0  0  0  0  0
  -88.8067   36.7172   -7.8173 F   0  0  0  0  0  0  0  0  0  0  0  0
  -87.3101   36.5103   -5.9555 C   0  0  0  0  0  0  0  0  0  0  0  0
  -86.9800   35.9618   -4.7189 C   0  0  0  0  0  0  0  0  0  0  0  0
  -87.0933   31.9206   -0.5774 C   0  0  0  0  0  0  0  0  0  0  0  0
  -85.9300   32.3252   -0.1740 C   0  0  0  0  0  0  0  0  0  0  0  0
  -84.9908   31.4092    0.4913 C   0  0  0  0  0  0  0  0  0  0  0  0
  -85.3338   30.3445    1.2502 C   0  0  0  0  0  0  0  0  0  0  0  0
  -84.3984   29.5007    1.8638 C   0  0  0  0  0  0  0  0  0  0  0  0
  -83.0611   29.7503    1.6986 C   0  0  0  0  0  0  0  0  0  0  0  0
  -82.1016   28.9783    2.2611 F   0  0  0  0  0  0  0  0  0  0  0  0
  -82.6921   30.8423    0.9205 C   0  0  0  0  0  0  0  0  0  0  0  0
  -83.6163   31.6539    0.3301 C   0  0  0  0  0  0  0  0  0  0  0  0
  1  2  2  0  0  0
  2  3  1  0  0  0
  3  4  2  0  0  0
  4  5  1  0  0  0
  5  6  2  0  0  0
  6  7  1  0  0  0
  7  8  2  0  0  0
  8  9  1  0  0  0
  8 10  1  0  0  0
 10 11  2  0  0  0
  2 12  1  0  0  0
 12 13  2  0  0  0
 13 14  1  0  0  0
 14 15  2  0  0  0
 15 16  1  0  0  0
 16 17  2  0  0  0
 17 18  1  0  0  0
 17 19  1  0  0  0
 19 20  2  0  0  0
 11  5  1  0  0  0
 20 14  1  0  0  0
M  END
> <minimizedAffinity>
-8.14108

> <CNNscore>
0.3922906518

> <CNNaffinity>
4.9159517288

> <CNN_VS>
1.9284819365

> <CNNaffinity_variance>
0.4037804604

$$$$
[H]/C(C(=O)/C([H])=C(\[H])c1c([H])c([H])c(F)c([H])c1[H])=C(/[H])c1c([H])c([H])c(F)c([H])c1[H]


 20 21  0  0  0  0  0  0  0  0999 V2000
  -84.6824   26.6380    2.4693 O   0  0  0  0  0  0  0  0  0  0  0  0
  -85.6747   27.2831    1.8731 C   0  0  0  0  0  0  0  0  0  0  0  0
  -85.2786   28.5363    1.3595 C   0  0  0  0  0  0  0  0  0  0  0  0
  -85.7734   29.7322    1.4508 C   0  0  0  0  0  0  0  0  0  0  0  0
  -85.1716   30.9217    0.8130 C   0  0  0  0  0  0  0  0  0  0  0  0
  -83.7967   31.1253    0.9918 C   0  0  0  0  0  0  0  0  0  0  0  0
  -83.1355   32.1947    0.4455 C   0  0  0  0  0  0  0  0  0  0  0  0
  -83.8365   33.0957   -0.2997 C   0  0  0  0  0  0  0  0  0  0  0  0
  -83.1841   34.1648   -0.8478 F   0  0  0  0  0  0  0  0  0  0  0  0
  -85.1911   32.9049   -0.4824 C   0  0  0  0  0  0  0  0  0  0  0  0
  -85.8558   31.8161    0.0759 C   0  0  0  0  0  0  0  0  0  0  0  0
  -86.8868   26.5743    1.8894 C   0  0  0  0  0  0  0  0  0  0  0  0
  -87.8300   26.5087    1.0030 C   0  0  0  0  0  0  0  0  0  0  0  0
  -89.0334   25.6929    1.2266 C   0  0  0  0  0  0  0  0  0  0  0  0
  -89.6351   25.4879    2.4195 C   0  0  0  0  0  0  0  0  0  0  0  0
  -90.7827   24.7000    2.5799 C   0  0  0  0  0  0  0  0  0  0  0  0
  -91.3401   24.0970    1.4828 C   0  0  0  0  0  0  0  0  0  0  0  0
  -92.4477   23.3223    1.5620 F   0  0  0  0  0  0  0  0  0  0  0  0
  -90.7326   24.2982    0.2480 C   0  0  0  0  0  0  0  0  0  0  0  0
  -89.6151   25.0688    0.1098 C   0  0  0  0  0  0  0  0  0  0  0  0
  1  2  2  0  0  0
  2  3  1  0  0  0
  3  4  2  0  0  0
  4  5  1  0  0  0
  5  6  2  0  0  0
  6  7  1  0  0  0
  7  8  2  0  0  0
  8  9  1  0  0  0
  8 10  1  0  0  0
 10 11  2  0  0  0
  2 12  1  0  0  0
 12 13  2  0  0  0
 13 14  1  0  0  0
 14 15  2  0  0  0
 15 16  1  0  0  0
 16 17  2  0  0  0
 17 18  1  0  0  0
 17 19  1  0  0  0
 19 20  2  0  0  0
 11  5  1  0  0  0
 20 14  1  0  0  0
M  END
> <minimizedAffinity>
-6.94144

> <CNNscore>
0.3789803088

> <CNNaffinity>
5.4547305107

> <CNN_VS>
2.0672354698

> <CNNaffinity_variance>
0.2196795642

$$$$
[H]/C(C(=O)/C([H])=C(\[H])c1c([H])c([H])c(F)c([H])c1[H])=C(/[H])c1c([H])c([H])c(F)c([H])c1[H]


 20 21  0  0  0  0  0  0  0  0999 V2000
  -83.9755   34.1551   -0.9105 O   0  0  0  0  0  0  0  0  0  0  0  0
  -84.9802   33.2976   -0.8014 C   0  0  0  0  0  0  0  0  0  0  0  0
  -84.6317   32.1406   -0.0726 C   0  0  0  0  0  0  0  0  0  0  0  0
  -84.8623   31.7518    1.1436 C   0  0  0  0  0  0  0  0  0  0  0  0
  -84.3858   30.4686    1.7007 C   0  0  0  0  0  0  0  0  0  0  0  0
  -83.0249   30.1669    1.5567 C   0  0  0  0  0  0  0  0  0  0  0  0
  -82.4757   29.0054    2.0350 C   0  0  0  0  0  0  0  0  0  0  0  0
  -83.2784   28.1082    2.6748 C   0  0  0  0  0  0  0  0  0  0  0  0
  -82.7380   26.9477    3.1545 F   0  0  0  0  0  0  0  0  0  0  0  0
  -84.6203   28.3953    2.8222 C   0  0  0  0  0  0  0  0  0  0  0  0
  -85.1709   29.5773    2.3335 C   0  0  0  0  0  0  0  0  0  0  0  0
  -86.1551   33.7357   -1.4334 C   0  0  0  0  0  0  0  0  0  0  0  0
  -86.4257   33.8753   -2.6931 C   0  0  0  0  0  0  0  0  0  0  0  0
  -87.7407   34.3566   -3.1434 C   0  0  0  0  0  0  0  0  0  0  0  0
  -88.7850   33.5760   -3.5000 C   0  0  0  0  0  0  0  0  0  0  0  0
  -90.0201   34.0849   -3.9230 C   0  0  0  0  0  0  0  0  0  0  0  0
  -90.1996   35.4421   -3.9855 C   0  0  0  0  0  0  0  0  0  0  0  0
  -91.3646   36.0046   -4.3846 F   0  0  0  0  0  0  0  0  0  0  0  0
  -89.1344   36.2589   -3.6218 C   0  0  0  0  0  0  0  0  0  0  0  0
  -87.9382   35.7464   -3.2121 C   0  0  0  0  0  0  0  0  0  0  0  0
  1  2  2  0  0  0
  2  3  1  0  0  0
  3  4  2  0  0  0
  4  5  1  0  0  0
  5  6  2  0  0  0
  6  7  1  0  0  0
  7  8  2  0  0  0
  8  9  1  0  0  0
  8 10  1  0  0  0
 10 11  2  0  0  0
  2 12  1  0  0  0
 12 13  2  0  0  0
 13 14  1  0  0  0
 14 15  2  0  0  0
 15 16  1  0  0  0
 16 17  2  0  0  0
 17 18  1  0  0  0
 17 19  1  0  0  0
 19 20  2  0  0  0
 11  5  1  0  0  0
 20 14  1  0  0  0
M  END
> <minimizedAffinity>
-8.24889

> <CNNscore>
0.3649598360

> <CNNaffinity>
5.0247435570

> <CNN_VS>
1.8338296413

> <CNNaffinity_variance>
0.3508023620

$$$$
[H]/C(C(=O)/C([H])=C(\[H])c1c([H])c([H])c(F)c([H])c1[H])=C(/[H])c1c([H])c([H])c(F)c([H])c1[H]


 20 21  0  0  0  0  0  0  0  0999 V2000
  -90.1508   30.2308   -1.7106 O   0  0  0  0  0  0  0  0  0  0  0  0
  -89.3238   31.0003   -2.4037 C   0  0  0  0  0  0  0  0  0  0  0  0
  -89.9291   31.5545   -3.5516 C   0  0  0  0  0  0  0  0  0  0  0  0
  -90.9887   32.2801   -3.7366 C   0  0  0  0  0  0  0  0  0  0  0  0
  -91.4386   32.7552   -5.0616 C   0  0  0  0  0  0  0  0  0  0  0  0
  -90.5998   33.6426   -5.7493 C   0  0  0  0  0  0  0  0  0  0  0  0
  -90.9178   34.1458   -6.9842 C   0  0  0  0  0  0  0  0  0  0  0  0
  -92.0914   33.7725   -7.5688 C   0  0  0  0  0  0  0  0  0  0  0  0
  -92.4154   34.2702   -8.8001 F   0  0  0  0  0  0  0  0  0  0  0  0
  -92.9251   32.8990   -6.9004 C   0  0  0  0  0  0  0  0  0  0  0  0
  -92.5952   32.3921   -5.6461 C   0  0  0  0  0  0  0  0  0  0  0  0
  -88.0411   31.0867   -1.8389 C   0  0  0  0  0  0  0  0  0  0  0  0
  -87.6310   31.7226   -0.7868 C   0  0  0  0  0  0  0  0  0  0  0  0
  -86.2218   31.6772   -0.3674 C   0  0  0  0  0  0  0  0  0  0  0  0
  -85.6401   30.6767    0.3310 C   0  0  0  0  0  0  0  0  0  0  0  0
  -84.2903   30.6813    0.7071 C   0  0  0  0  0  0  0  0  0  0  0  0
  -83.5012   31.7461    0.3586 C   0  0  0  0  0  0  0  0  0  0  0  0
  -82.1899   31.8189    0.6874 F   0  0  0  0  0  0  0  0  0  0  0  0
  -84.0851   32.7837   -0.3602 C   0  0  0  0  0  0  0  0  0  0  0  0
  -85.4016   32.7631   -0.7183 C   0  0  0  0  0  0  0  0  0  0  0  0
  1  2  2  0  0  0
  2  3  1  0  0  0
  3  4  2  0  0  0
  4  5  1  0  0  0
  5  6  2  0  0  0
  6  7  1  0  0  0
  7  8  2  0  0  0
  8  9  1  0  0  0
  8 10  1  0  0  0
 10 11  2  0  0  0
  2 12  1  0  0  0
 12 13  2  0  0  0
 13 14  1  0  0  0
 14 15  2  0  0  0
 15 16  1  0  0  0
 16 17  2  0  0  0
 17 18  1  0  0  0
 17 19  1  0  0  0
 19 20  2  0  0  0
 11  5  1  0  0  0
 20 14  1  0  0  0
M  END
> <minimizedAffinity>
-6.01484

> <CNNscore>
0.3058108985

> <CNNaffinity>
4.7210607529

> <CNN_VS>
1.4437518120

> <CNNaffinity_variance>
0.1896233261

$$$$
[H]Oc1c([H])c([H])c(N([H])c2nc([H])c(F)c(N([H])c3c([H])c([H])c(C(=O)N([H])[H])c([H])c3[H])n2)c([H])c1[H]


 30 32  0  0  0  0  0  0  0  0999 V2000
  -86.9767   31.4128   -1.3293 C   0  0  0  0  0  0  0  0  0  0  0  0
  -86.1764   31.2840   -0.2840 N   0  0  0  0  0  0  0  0  0  0  0  0
  -85.3722   32.3012    0.1409 C   0  0  0  0  0  0  0  0  0  0  0  0
  -85.4191   33.4530   -0.5451 N   0  0  0  0  0  0  0  0  0  0  0  0
  -86.1973   33.6526   -1.6022 C   0  0  0  0  0  0  0  0  0  0  0  0
  -87.0112   32.6301   -2.0358 C   0  0  0  0  0  0  0  0  0  0  0  0
  -87.8211   32.7730   -3.0997 F   0  0  0  0  0  0  0  0  0  0  0  0
  -87.8097   30.3722   -1.8143 N   0  0  0  0  0  0  0  0  0  0  0  0
  -88.3131   30.5493   -2.7343 H   0  0  0  0  0  0  0  0  0  0  0  0
  -88.6853   26.6840    0.0281 C   0  0  0  0  0  0  0  0  0  0  0  0
  -87.7618   26.7747   -0.9602 C   0  0  0  0  0  0  0  0  0  0  0  0
  -87.4382   27.9820   -1.5893 C   0  0  0  0  0  0  0  0  0  0  0  0
  -88.0562   29.1213   -1.2175 C   0  0  0  0  0  0  0  0  0  0  0  0
  -89.0215   29.0538   -0.1906 C   0  0  0  0  0  0  0  0  0  0  0  0
  -89.3202   27.8631    0.4088 C   0  0  0  0  0  0  0  0  0  0  0  0
  -88.8338   24.2068    0.0214 N   0  0  0  0  0  0  0  0  0  0  0  0
  -89.0266   25.4288    0.6870 C   0  0  0  0  0  0  0  0  0  0  0  0
  -89.4903   25.4454    1.8439 O   0  0  0  0  0  0  0  0  0  0  0  0
  -89.6271   23.7654   -0.4809 H   0  0  0  0  0  0  0  0  0  0  0  0
  -87.9165   23.7264    0.0150 H   0  0  0  0  0  0  0  0  0  0  0  0
  -84.5318   32.0688    1.2435 N   0  0  0  0  0  0  0  0  0  0  0  0
  -84.1520   32.9185    1.7561 H   0  0  0  0  0  0  0  0  0  0  0  0
  -84.1597   30.8081    1.7147 C   0  0  0  0  0  0  0  0  0  0  0  0
  -82.9298   30.2464    1.5386 C   0  0  0  0  0  0  0  0  0  0  0  0
  -82.6073   28.9545    2.0090 C   0  0  0  0  0  0  0  0  0  0  0  0
  -83.5621   28.2240    2.6735 C   0  0  0  0  0  0  0  0  0  0  0  0
  -83.2531   26.9483    3.1412 O   0  0  0  0  0  0  0  0  0  0  0  0
  -84.8223   28.7555    2.8751 C   0  0  0  0  0  0  0  0  0  0  0  0
  -85.1006   30.0101    2.4054 C   0  0  0  0  0  0  0  0  0  0  0  0
  -83.4283   26.1782    2.5067 H   0  0  0  0  0  0  0  0  0  0  0  0
 16 17  1  0  0  0
 17 18  2  0  0  0
 17 10  1  0  0  0
 10 11  2  0  0  0
 11 12  1  0  0  0
 12 13  2  0  0  0
 13  8  1  0  0  0
  8  1  1  0  0  0
  1  2  2  0  0  0
  2  3  1  0  0  0
  3 21  1  0  0  0
 21 23  1  0  0  0
 23 24  2  0  0  0
 24 25  1  0  0  0
 25 26  2  0  0  0
 26 27  1  0  0  0
 26 28  1  0  0  0
 28 29  2  0  0  0
  3  4  2  0  0  0
  4  5  1  0  0  0
  5  6  2  0  0  0
  6  7  1  0  0  0
 13 14  1  0  0  0
 14 15  2  0  0  0
 15 10  1  0  0  0
  6  1  1  0  0  0
 29 23  1  0  0  0
 16 19  1  0  0  0
 16 20  1  0  0  0
  8  9  1  0  0  0
 21 22  1  0  0  0
 27 30  1  0  0  0
M  END
> <minimizedAffinity>
-9.33556

> <CNNscore>
0.6769871712

> <CNNaffinity>
6.9632554054

> <CNN_VS>
4.7140345573

> <CNNaffinity_variance>
0.0715469122

$$$$
[H]Oc1c([H])c([H])c(N([H])c2nc([H])c(F)c(N([H])c3c([H])c([H])c(C(=O)N([H])[H])c([H])c3[H])n2)c([H])c1[H]


 30 32  0  0  0  0  0  0  0  0999 V2000
  -84.4981   30.6372    1.0397 C   0  0  0  0  0  0  0  0  0  0  0  0
  -85.1934   31.5895    0.4403 N   0  0  0  0  0  0  0  0  0  0  0  0
  -84.5892   32.6241   -0.2128 C   0  0  0  0  0  0  0  0  0  0  0  0
  -83.2480   32.6455   -0.2280 N   0  0  0  0  0  0  0  0  0  0  0  0
  -82.4874   31.7245    0.3516 C   0  0  0  0  0  0  0  0  0  0  0  0
  -83.0911   30.6780    1.0121 C   0  0  0  0  0  0  0  0  0  0  0  0
  -82.3736   29.7151    1.6176 F   0  0  0  0  0  0  0  0  0  0  0  0
  -85.0893   29.5591    1.7470 N   0  0  0  0  0  0  0  0  0  0  0  0
  -84.8534   29.4761    2.7808 H   0  0  0  0  0  0  0  0  0  0  0  0
  -87.6765   26.6756    0.0871 C   0  0  0  0  0  0  0  0  0  0  0  0
  -87.0462   26.4583    1.2675 C   0  0  0  0  0  0  0  0  0  0  0  0
  -86.1874   27.3947    1.8538 C   0  0  0  0  0  0  0  0  0  0  0  0
  -85.9571   28.5732    1.2404 C   0  0  0  0  0  0  0  0  0  0  0  0
  -86.6016   28.8239    0.0105 C   0  0  0  0  0  0  0  0  0  0  0  0
  -87.4361   27.8940   -0.5420 C   0  0  0  0  0  0  0  0  0  0  0  0
  -88.7635   24.4447    0.0650 N   0  0  0  0  0  0  0  0  0  0  0  0
  -88.5723   25.7035   -0.5286 C   0  0  0  0  0  0  0  0  0  0  0  0
  -89.1675   25.9951   -1.5842 O   0  0  0  0  0  0  0  0  0  0  0  0
  -88.2076   23.6326   -0.2638 H   0  0  0  0  0  0  0  0  0  0  0  0
  -89.4480   24.2983    0.8281 H   0  0  0  0  0  0  0  0  0  0  0  0
  -85.4045   33.6084   -0.7981 N   0  0  0  0  0  0  0  0  0  0  0  0
  -85.0655   34.6144   -0.7524 H   0  0  0  0  0  0  0  0  0  0  0  0
  -86.6236   33.3639   -1.4337 C   0  0  0  0  0  0  0  0  0  0  0  0
  -86.8451   33.5147   -2.7706 C   0  0  0  0  0  0  0  0  0  0  0  0
  -88.1045   33.2827   -3.3656 C   0  0  0  0  0  0  0  0  0  0  0  0
  -89.1575   32.8876   -2.5768 C   0  0  0  0  0  0  0  0  0  0  0  0
  -90.4040   32.6565   -3.1550 O   0  0  0  0  0  0  0  0  0  0  0  0
  -88.9770   32.7214   -1.2163 C   0  0  0  0  0  0  0  0  0  0  0  0
  -87.7432   32.9554   -0.6730 C   0  0  0  0  0  0  0  0  0  0  0  0
  -91.0332   33.4487   -3.2073 H   0  0  0  0  0  0  0  0  0  0  0  0
 16 17  1  0  0  0
 17 18  2  0  0  0
 17 10  1  0  0  0
 10 11  2  0  0  0
 11 12  1  0  0  0
 12 13  2  0  0  0
 13  8  1  0  0  0
  8  1  1  0  0  0
  1  2  2  0  0  0
  2  3  1  0  0  0
  3 21  1  0  0  0
 21 23  1  0  0  0
 23 24  2  0  0  0
 24 25  1  0  0  0
 25 26  2  0  0  0
 26 27  1  0  0  0
 26 28  1  0  0  0
 28 29  2  0  0  0
  3  4  2  0  0  0
  4  5  1  0  0  0
  5  6  2  0  0  0
  6  7  1  0  0  0
 13 14  1  0  0  0
 14 15  2  0  0  0
 15 10  1  0  0  0
  6  1  1  0  0  0
 29 23  1  0  0  0
 16 19  1  0  0  0
 16 20  1  0  0  0
  8  9  1  0  0  0
 21 22  1  0  0  0
 27 30  1  0  0  0
M  END
> <minimizedAffinity>
-8.65360

> <CNNscore>
0.6102913022

> <CNNaffinity>
6.7545776367

> <CNN_VS>
4.1222600937

> <CNNaffinity_variance>
0.0358752087

$$$$
[H]Oc1c([H])c([H])c(N([H])c2nc([H])c(F)c(N([H])c3c([H])c([H])c(C(=O)N([H])[H])c([H])c3[H])n2)c([H])c1[H]


 30 32  0  0  0  0  0  0  0  0999 V2000
  -85.9690   32.5479   -0.5646 C   0  0  0  0  0  0  0  0  0  0  0  0
  -87.1612   31.9776   -0.6200 N   0  0  0  0  0  0  0  0  0  0  0  0
  -87.9912   32.1393   -1.6909 C   0  0  0  0  0  0  0  0  0  0  0  0
  -87.5538   32.9063   -2.7008 N   0  0  0  0  0  0  0  0  0  0  0  0
  -86.3706   33.5085   -2.7127 C   0  0  0  0  0  0  0  0  0  0  0  0
  -85.5284   33.3492   -1.6351 C   0  0  0  0  0  0  0  0  0  0  0  0
  -84.3182   33.9337   -1.5903 F   0  0  0  0  0  0  0  0  0  0  0  0
  -85.0881   32.4219    0.5400 N   0  0  0  0  0  0  0  0  0  0  0  0
  -84.7951   33.3215    1.0258 H   0  0  0  0  0  0  0  0  0  0  0  0
  -83.6077   28.8086    2.1263 C   0  0  0  0  0  0  0  0  0  0  0  0
  -82.7714   29.7562    1.6361 C   0  0  0  0  0  0  0  0  0  0  0  0
  -83.2248   30.9709    1.1097 C   0  0  0  0  0  0  0  0  0  0  0  0
  -84.5460   31.2379    1.0749 C   0  0  0  0  0  0  0  0  0  0  0  0
  -85.4376   30.2678    1.5796 C   0  0  0  0  0  0  0  0  0  0  0  0
  -84.9709   29.0892    2.0888 C   0  0  0  0  0  0  0  0  0  0  0  0
  -81.7701   27.3301    2.8981 N   0  0  0  0  0  0  0  0  0  0  0  0
  -83.1410   27.5411    2.6759 C   0  0  0  0  0  0  0  0  0  0  0  0
  -83.9646   26.6458    2.9476 O   0  0  0  0  0  0  0  0  0  0  0  0
  -81.2038   26.8381    2.1813 H   0  0  0  0  0  0  0  0  0  0  0  0
  -81.3003   27.6525    3.7628 H   0  0  0  0  0  0  0  0  0  0  0  0
  -89.2528   31.5202   -1.6544 N   0  0  0  0  0  0  0  0  0  0  0  0
  -90.0962   32.1144   -1.9090 H   0  0  0  0  0  0  0  0  0  0  0  0
  -89.4802   30.1864   -1.3096 C   0  0  0  0  0  0  0  0  0  0  0  0
  -89.8626   29.7596   -0.0723 C   0  0  0  0  0  0  0  0  0  0  0  0
  -90.0535   28.3954    0.2382 C   0  0  0  0  0  0  0  0  0  0  0  0
  -89.8500   27.4497   -0.7370 C   0  0  0  0  0  0  0  0  0  0  0  0
  -90.0359   26.1011   -0.4399 O   0  0  0  0  0  0  0  0  0  0  0  0
  -89.4628   27.8384   -2.0059 C   0  0  0  0  0  0  0  0  0  0  0  0
  -89.2864   29.1689   -2.2719 C   0  0  0  0  0  0  0  0  0  0  0  0
  -89.2266   25.5967   -0.0980 H   0  0  0  0  0  0  0  0  0  0  0  0
 16 17  1  0  0  0
 17 18  2  0  0  0
 17 10  1  0  0  0
 10 11  2  0  0  0
 11 12  1  0  0  0
 12 13  2  0  0  0
 13  8  1  0  0  0
  8  1  1  0  0  0
  1  2  2  0  0  0
  2  3  1  0  0  0
  3 21  1  0  0  0
 21 23  1  0  0  0
 23 24  2  0  0  0
 24 25  1  0  0  0
 25 26  2  0  0  0
 26 27  1  0  0  0
 26 28  1  0  0  0
 28 29  2  0  0  0
  3  4  2  0  0  0
  4  5  1  0  0  0
  5  6  2  0  0  0
  6  7  1  0  0  0
 13 14  1  0  0  0
 14 15  2  0  0  0
 15 10  1  0  0  0
  6  1  1  0  0  0
 29 23  1  0  0  0
 16 19  1  0  0  0
 16 20  1  0  0  0
  8  9  1  0  0  0
 21 22  1  0  0  0
 27 30  1  0  0  0
M  END
> <minimizedAffinity>
-7.67269

> <CNNscore>
0.6091125607

> <CNNaffinity>
6.6847596169

> <CNN_VS>
4.0717711449

> <CNNaffinity_variance>
0.0673026964

$$$$
[H]Oc1c([H])c([H])c(N([H])c2nc([H])c(F)c(N([H])c3c([H])c([H])c(C(=O)N([H])[H])c([H])c3[H])n2)c([H])c1[H]


 30 32  0  0  0  0  0  0  0  0999 V2000
  -87.1548   31.6212   -0.8336 C   0  0  0  0  0  0  0  0  0  0  0  0
  -86.1719   31.4151    0.0272 N   0  0  0  0  0  0  0  0  0  0  0  0
  -85.2134   32.3556    0.2695 C   0  0  0  0  0  0  0  0  0  0  0  0
  -85.3005   33.5132   -0.4028 N   0  0  0  0  0  0  0  0  0  0  0  0
  -86.2582   33.7881   -1.2802 C   0  0  0  0  0  0  0  0  0  0  0  0
  -87.2283   32.8432   -1.5291 C   0  0  0  0  0  0  0  0  0  0  0  0
  -88.2233   33.0644   -2.4063 F   0  0  0  0  0  0  0  0  0  0  0  0
  -88.1556   30.6603   -1.1287 N   0  0  0  0  0  0  0  0  0  0  0  0
  -88.1237   29.7497   -0.5801 H   0  0  0  0  0  0  0  0  0  0  0  0
  -91.1784   30.8942   -4.0564 C   0  0  0  0  0  0  0  0  0  0  0  0
  -91.4515   31.1046   -2.7454 C   0  0  0  0  0  0  0  0  0  0  0  0
  -90.4736   31.0440   -1.7463 C   0  0  0  0  0  0  0  0  0  0  0  0
  -89.1951   30.7656   -2.0721 C   0  0  0  0  0  0  0  0  0  0  0  0
  -88.8847   30.5429   -3.4304 C   0  0  0  0  0  0  0  0  0  0  0  0
  -89.8569   30.6077   -4.3878 C   0  0  0  0  0  0  0  0  0  0  0  0
  -92.4755   29.8208   -5.8796 N   0  0  0  0  0  0  0  0  0  0  0  0
  -92.1934   30.9559   -5.1016 C   0  0  0  0  0  0  0  0  0  0  0  0
  -92.8093   32.0210   -5.3013 O   0  0  0  0  0  0  0  0  0  0  0  0
  -92.0178   29.7053   -6.8035 H   0  0  0  0  0  0  0  0  0  0  0  0
  -93.1322   29.0874   -5.5586 H   0  0  0  0  0  0  0  0  0  0  0  0
  -84.1886   32.0422    1.1792 N   0  0  0  0  0  0  0  0  0  0  0  0
  -83.5601   32.8368    1.5000 H   0  0  0  0  0  0  0  0  0  0  0  0
  -83.9350   30.7683    1.6917 C   0  0  0  0  0  0  0  0  0  0  0  0
  -82.7702   30.0808    1.5193 C   0  0  0  0  0  0  0  0  0  0  0  0
  -82.5692   28.7808    2.0329 C   0  0  0  0  0  0  0  0  0  0  0  0
  -83.5798   28.1733    2.7375 C   0  0  0  0  0  0  0  0  0  0  0  0
  -83.3906   26.8907    3.2480 O   0  0  0  0  0  0  0  0  0  0  0  0
  -84.7772   28.8348    2.9370 C   0  0  0  0  0  0  0  0  0  0  0  0
  -84.9380   30.0934    2.4248 C   0  0  0  0  0  0  0  0  0  0  0  0
  -83.6525   26.1198    2.6452 H   0  0  0  0  0  0  0  0  0  0  0  0
 16 17  1  0  0  0
 17 18  2  0  0  0
 17 10  1  0  0  0
 10 11  2  0  0  0
 11 12  1  0  0  0
 12 13  2  0  0  0
 13  8  1  0  0  0
  8  1  1  0  0  0
  1  2  2  0  0  0
  2  3  1  0  0  0
  3 21  1  0  0  0
 21 23  1  0  0  0
 23 24  2  0  0  0
 24 25  1  0  0  0
 25 26  2  0  0  0
 26 27  1  0  0  0
 26 28  1  0  0  0
 28 29  2  0  0  0
  3  4  2  0  0  0
  4  5  1  0  0  0
  5  6  2  0  0  0
  6  7  1  0  0  0
 13 14  1  0  0  0
 14 15  2  0  0  0
 15 10  1  0  0  0
  6  1  1  0  0  0
 29 23  1  0  0  0
 16 19  1  0  0  0
 16 20  1  0  0  0
  8  9  1  0  0  0
 21 22  1  0  0  0
 27 30  1  0  0  0
M  END
> <minimizedAffinity>
-8.51926

> <CNNscore>
0.6084815264

> <CNNaffinity>
6.7033729553

> <CNN_VS>
4.0788784027

> <CNNaffinity_variance>
0.4177955091

$$$$
[H]Oc1c([H])c([H])c(N([H])c2nc([H])c(F)c(N([H])c3c([H])c([H])c(C(=O)N([H])[H])c([H])c3[H])n2)c([H])c1[H]


 30 32  0  0  0  0  0  0  0  0999 V2000
  -87.5993   27.9867    0.1227 C   0  0  0  0  0  0  0  0  0  0  0  0
  -86.5274   28.6244    0.5630 N   0  0  0  0  0  0  0  0  0  0  0  0
  -85.7979   28.1675    1.6218 C   0  0  0  0  0  0  0  0  0  0  0  0
  -86.2082   27.0343    2.2110 N   0  0  0  0  0  0  0  0  0  0  0  0
  -87.2731   26.3429    1.8228 C   0  0  0  0  0  0  0  0  0  0  0  0
  -88.0133   26.7988    0.7550 C   0  0  0  0  0  0  0  0  0  0  0  0
  -89.1011   26.1414    0.3160 F   0  0  0  0  0  0  0  0  0  0  0  0
  -88.3955   28.4418   -0.9594 N   0  0  0  0  0  0  0  0  0  0  0  0
  -89.2372   27.8463   -1.2201 H   0  0  0  0  0  0  0  0  0  0  0  0
  -87.7799   31.9796   -3.1659 C   0  0  0  0  0  0  0  0  0  0  0  0
  -87.7925   30.7667   -3.7711 C   0  0  0  0  0  0  0  0  0  0  0  0
  -88.0022   29.5718   -3.0737 C   0  0  0  0  0  0  0  0  0  0  0  0
  -88.2027   29.5970   -1.7406 C   0  0  0  0  0  0  0  0  0  0  0  0
  -88.1946   30.8474   -1.0868 C   0  0  0  0  0  0  0  0  0  0  0  0
  -87.9880   32.0005   -1.7895 C   0  0  0  0  0  0  0  0  0  0  0  0
  -86.4932   34.0692   -3.5359 N   0  0  0  0  0  0  0  0  0  0  0  0
  -87.5618   33.2279   -3.8875 C   0  0  0  0  0  0  0  0  0  0  0  0
  -88.3283   33.5447   -4.8179 O   0  0  0  0  0  0  0  0  0  0  0  0
  -86.6578   34.8659   -2.8919 H   0  0  0  0  0  0  0  0  0  0  0  0
  -85.5361   33.9194   -3.9017 H   0  0  0  0  0  0  0  0  0  0  0  0
  -84.6893   28.9230    2.0416 N   0  0  0  0  0  0  0  0  0  0  0  0
  -84.1275   28.5513    2.8635 H   0  0  0  0  0  0  0  0  0  0  0  0
  -84.2719   30.1224    1.4611 C   0  0  0  0  0  0  0  0  0  0  0  0
  -85.1071   31.1272    1.0711 C   0  0  0  0  0  0  0  0  0  0  0  0
  -84.6410   32.3124    0.4612 C   0  0  0  0  0  0  0  0  0  0  0  0
  -83.2936   32.4726    0.2472 C   0  0  0  0  0  0  0  0  0  0  0  0
  -82.8244   33.6387   -0.3541 O   0  0  0  0  0  0  0  0  0  0  0  0
  -82.4108   31.4793    0.6281 C   0  0  0  0  0  0  0  0  0  0  0  0
  -82.8971   30.3434    1.2161 C   0  0  0  0  0  0  0  0  0  0  0  0
  -82.7551   33.6313   -1.3647 H   0  0  0  0  0  0  0  0  0  0  0  0
 16 17  1  0  0  0
 17 18  2  0  0  0
 17 10  1  0  0  0
 10 11  2  0  0  0
 11 12  1  0  0  0
 12 13  2  0  0  0
 13  8  1  0  0  0
  8  1  1  0  0  0
  1  2  2  0  0  0
  2  3  1  0  0  0
  3 21  1  0  0  0
 21 23  1  0  0  0
 23 24  2  0  0  0
 24 25  1  0  0  0
 25 26  2  0  0  0
 26 27  1  0  0  0
 26 28  1  0  0  0
 28 29  2  0  0  0
  3  4  2  0  0  0
  4  5  1  0  0  0
  5  6  2  0  0  0
  6  7  1  0  0  0
 13 14  1  0  0  0
 14 15  2  0  0  0
 15 10  1  0  0  0
  6  1  1  0  0  0
 29 23  1  0  0  0
 16 19  1  0  0  0
 16 20  1  0  0  0
  8  9  1  0  0  0
 21 22  1  0  0  0
 27 30  1  0  0  0
M  END
> <minimizedAffinity>
-8.75780

> <CNNscore>
0.5452539325

> <CNNaffinity>
6.7208008766

> <CNN_VS>
3.6645431519

> <CNNaffinity_variance>
0.2302059382

$$$$
[H]Oc1c([H])c([H])c(N([H])c2nc([H])c(F)c(N([H])c3c([H])c([H])c(C(=O)N([H])[H])c([H])c3[H])n2)c([H])c1[H]


 30 32  0  0  0  0  0  0  0  0999 V2000
  -84.9077   29.5854    1.6577 C   0  0  0  0  0  0  0  0  0  0  0  0
  -86.0136   28.8979    1.4250 N   0  0  0  0  0  0  0  0  0  0  0  0
  -86.0854   27.5513    1.6335 C   0  0  0  0  0  0  0  0  0  0  0  0
  -84.9829   26.9374    2.0885 N   0  0  0  0  0  0  0  0  0  0  0  0
  -83.8401   27.5634    2.3434 C   0  0  0  0  0  0  0  0  0  0  0  0
  -83.7613   28.9222    2.1352 C   0  0  0  0  0  0  0  0  0  0  0  0
  -82.6315   29.6106    2.3758 F   0  0  0  0  0  0  0  0  0  0  0  0
  -84.7875   30.9806    1.4320 N   0  0  0  0  0  0  0  0  0  0  0  0
  -84.2059   31.5319    2.1313 H   0  0  0  0  0  0  0  0  0  0  0  0
  -86.6265   33.1940   -1.6474 C   0  0  0  0  0  0  0  0  0  0  0  0
  -85.3295   33.4004   -1.3112 C   0  0  0  0  0  0  0  0  0  0  0  0
  -84.6826   32.6797   -0.3011 C   0  0  0  0  0  0  0  0  0  0  0  0
  -85.3535   31.7328    0.3853 C   0  0  0  0  0  0  0  0  0  0  0  0
  -86.7050   31.4984    0.0541 C   0  0  0  0  0  0  0  0  0  0  0  0
  -87.3148   32.2148   -0.9364 C   0  0  0  0  0  0  0  0  0  0  0  0
  -86.5746   34.4644   -3.7786 N   0  0  0  0  0  0  0  0  0  0  0  0
  -87.3057   33.9419   -2.6989 C   0  0  0  0  0  0  0  0  0  0  0  0
  -88.5384   34.1153   -2.6349 O   0  0  0  0  0  0  0  0  0  0  0  0
  -86.2555   35.4514   -3.7525 H   0  0  0  0  0  0  0  0  0  0  0  0
  -86.3407   33.8916   -4.6089 H   0  0  0  0  0  0  0  0  0  0  0  0
  -87.2916   26.8949    1.3330 N   0  0  0  0  0  0  0  0  0  0  0  0
  -87.3764   26.4428    0.3750 H   0  0  0  0  0  0  0  0  0  0  0  0
  -88.3840   26.7925    2.1967 C   0  0  0  0  0  0  0  0  0  0  0  0
  -89.3964   27.7022    2.2778 C   0  0  0  0  0  0  0  0  0  0  0  0
  -90.4679   27.5712    3.1881 C   0  0  0  0  0  0  0  0  0  0  0  0
  -90.5042   26.4873    4.0312 C   0  0  0  0  0  0  0  0  0  0  0  0
  -91.5575   26.3496    4.9330 O   0  0  0  0  0  0  0  0  0  0  0  0
  -89.4986   25.5400    3.9820 C   0  0  0  0  0  0  0  0  0  0  0  0
  -88.4750   25.6987    3.0879 C   0  0  0  0  0  0  0  0  0  0  0  0
  -91.4308   26.7708    5.8456 H   0  0  0  0  0  0  0  0  0  0  0  0
 16 17  1  0  0  0
 17 18  2  0  0  0
 17 10  1  0  0  0
 10 11  2  0  0  0
 11 12  1  0  0  0
 12 13  2  0  0  0
 13  8  1  0  0  0
  8  1  1  0  0  0
  1  2  2  0  0  0
  2  3  1  0  0  0
  3 21  1  0  0  0
 21 23  1  0  0  0
 23 24  2  0  0  0
 24 25  1  0  0  0
 25 26  2  0  0  0
 26 27  1  0  0  0
 26 28  1  0  0  0
 28 29  2  0  0  0
  3  4  2  0  0  0
  4  5  1  0  0  0
  5  6  2  0  0  0
  6  7  1  0  0  0
 13 14  1  0  0  0
 14 15  2  0  0  0
 15 10  1  0  0  0
  6  1  1  0  0  0
 29 23  1  0  0  0
 16 19  1  0  0  0
 16 20  1  0  0  0
  8  9  1  0  0  0
 21 22  1  0  0  0
 27 30  1  0  0  0
M  END
> <minimizedAffinity>
-8.93216

> <CNNscore>
0.4115203619

> <CNNaffinity>
6.4988279343

> <CNN_VS>
2.6744000912

> <CNNaffinity_variance>
0.1138548255

$$$$
[H]Oc1c([H])c([H])c(N([H])c2nc([H])c(F)c(N([H])c3c([H])c([H])c(C(=O)N([H])[H])c([H])c3[H])n2)c([H])c1[H]


 30 32  0  0  0  0  0  0  0  0999 V2000
  -85.0588   32.2204    0.1876 C   0  0  0  0  0  0  0  0  0  0  0  0
  -85.6493   31.1249    0.6359 N   0  0  0  0  0  0  0  0  0  0  0  0
  -84.9372   30.0597    1.1050 C   0  0  0  0  0  0  0  0  0  0  0  0
  -83.5995   30.1596    1.0970 N   0  0  0  0  0  0  0  0  0  0  0  0
  -82.9406   31.2272    0.6623 C   0  0  0  0  0  0  0  0  0  0  0  0
  -83.6535   32.3054    0.1878 C   0  0  0  0  0  0  0  0  0  0  0  0
  -83.0420   33.4142   -0.2651 F   0  0  0  0  0  0  0  0  0  0  0  0
  -85.7635   33.3381   -0.3282 N   0  0  0  0  0  0  0  0  0  0  0  0
  -85.5014   34.2925    0.0613 H   0  0  0  0  0  0  0  0  0  0  0  0
  -88.6975   33.3293   -3.3540 C   0  0  0  0  0  0  0  0  0  0  0  0
  -89.0057   33.0037   -2.0747 C   0  0  0  0  0  0  0  0  0  0  0  0
  -88.0613   33.0036   -1.0420 C   0  0  0  0  0  0  0  0  0  0  0  0
  -86.7808   33.3371   -1.3012 C   0  0  0  0  0  0  0  0  0  0  0  0
  -86.4343   33.6806   -2.6251 C   0  0  0  0  0  0  0  0  0  0  0  0
  -87.3743   33.6736   -3.6164 C   0  0  0  0  0  0  0  0  0  0  0  0
  -89.5767   32.3988   -5.4800 N   0  0  0  0  0  0  0  0  0  0  0  0
  -89.6773   33.3310   -4.4340 C   0  0  0  0  0  0  0  0  0  0  0  0
  -90.6046   34.1639   -4.4243 O   0  0  0  0  0  0  0  0  0  0  0  0
  -89.1057   32.6686   -6.3642 H   0  0  0  0  0  0  0  0  0  0  0  0
  -89.9610   31.4408   -5.3975 H   0  0  0  0  0  0  0  0  0  0  0  0
  -85.6448   28.9240    1.5359 N   0  0  0  0  0  0  0  0  0  0  0  0
  -85.6168   28.6953    2.5732 H   0  0  0  0  0  0  0  0  0  0  0  0
  -86.3801   28.0761    0.7051 C   0  0  0  0  0  0  0  0  0  0  0  0
  -86.7719   28.3827   -0.5644 C   0  0  0  0  0  0  0  0  0  0  0  0
  -87.5402   27.5032   -1.3584 C   0  0  0  0  0  0  0  0  0  0  0  0
  -87.9137   26.2859   -0.8431 C   0  0  0  0  0  0  0  0  0  0  0  0
  -88.6720   25.4116   -1.6191 O   0  0  0  0  0  0  0  0  0  0  0  0
  -87.5371   25.9339    0.4396 C   0  0  0  0  0  0  0  0  0  0  0  0
  -86.7932   26.8106    1.1813 C   0  0  0  0  0  0  0  0  0  0  0  0
  -89.6787   25.4980   -1.5465 H   0  0  0  0  0  0  0  0  0  0  0  0
 16 17  1  0  0  0
 17 18  2  0  0  0
 17 10  1  0  0  0
 10 11  2  0  0  0
 11 12  1  0  0  0
 12 13  2  0  0  0
 13  8  1  0  0  0
  8  1  1  0  0  0
  1  2  2  0  0  0
  2  3  1  0  0  0
  3 21  1  0  0  0
 21 23  1  0  0  0
 23 24  2  0  0  0
 24 25  1  0  0  0
 25 26  2  0  0  0
 26 27  1  0  0  0
 26 28  1  0  0  0
 28 29  2  0  0  0
  3  4  2  0  0  0
  4  5  1  0  0  0
  5  6  2  0  0  0
  6  7  1  0  0  0
 13 14  1  0  0  0
 14 15  2  0  0  0
 15 10  1  0  0  0
  6  1  1  0  0  0
 29 23  1  0  0  0
 16 19  1  0  0  0
 16 20  1  0  0  0
  8  9  1  0  0  0
 21 22  1  0  0  0
 27 30  1  0  0  0
M  END
> <minimizedAffinity>
-8.18449

> <CNNscore>
0.3783577681

> <CNNaffinity>
6.3715448380

> <CNN_VS>
2.4107234478

> <CNNaffinity_variance>
0.0312238690

$$$$
[H]Oc1c([H])c([H])c(N([H])c2nc([H])c(F)c(N([H])c3c([H])c([H])c(C(=O)N([H])[H])c([H])c3[H])n2)c([H])c1[H]


 30 32  0  0  0  0  0  0  0  0999 V2000
  -84.4300   29.6520    1.8174 C   0  0  0  0  0  0  0  0  0  0  0  0
  -85.6073   29.0492    1.8023 N   0  0  0  0  0  0  0  0  0  0  0  0
  -85.7472   27.7277    2.1126 C   0  0  0  0  0  0  0  0  0  0  0  0
  -84.6368   27.0491    2.4381 N   0  0  0  0  0  0  0  0  0  0  0  0
  -83.4243   27.5889    2.4738 C   0  0  0  0  0  0  0  0  0  0  0  0
  -83.2766   28.9219    2.1619 C   0  0  0  0  0  0  0  0  0  0  0  0
  -82.0743   29.5241    2.1811 F   0  0  0  0  0  0  0  0  0  0  0  0
  -84.2414   31.0167    1.4795 N   0  0  0  0  0  0  0  0  0  0  0  0
  -83.5323   31.5606    2.0560 H   0  0  0  0  0  0  0  0  0  0  0  0
  -86.3184   33.1660   -1.4921 C   0  0  0  0  0  0  0  0  0  0  0  0
  -84.9999   33.3804   -1.2612 C   0  0  0  0  0  0  0  0  0  0  0  0
  -84.2750   32.6809   -0.2900 C   0  0  0  0  0  0  0  0  0  0  0  0
  -84.8885   31.7471    0.4649 C   0  0  0  0  0  0  0  0  0  0  0  0
  -86.2609   31.5047    0.2438 C   0  0  0  0  0  0  0  0  0  0  0  0
  -86.9472   32.2004   -0.7107 C   0  0  0  0  0  0  0  0  0  0  0  0
  -86.4349   34.3919   -3.6466 N   0  0  0  0  0  0  0  0  0  0  0  0
  -87.0788   33.8920   -2.5026 C   0  0  0  0  0  0  0  0  0  0  0  0
  -88.3030   34.0667   -2.3462 O   0  0  0  0  0  0  0  0  0  0  0  0
  -86.1162   35.3792   -3.6659 H   0  0  0  0  0  0  0  0  0  0  0  0
  -86.2656   33.8020   -4.4806 H   0  0  0  0  0  0  0  0  0  0  0  0
  -87.0315   27.1605    2.0436 N   0  0  0  0  0  0  0  0  0  0  0  0
  -87.3975   26.6722    2.9135 H   0  0  0  0  0  0  0  0  0  0  0  0
  -87.8606   27.1904    0.9203 C   0  0  0  0  0  0  0  0  0  0  0  0
  -88.8747   28.0816    0.7286 C   0  0  0  0  0  0  0  0  0  0  0  0
  -89.7067   28.0557   -0.4120 C   0  0  0  0  0  0  0  0  0  0  0  0
  -89.4959   27.0997   -1.3756 C   0  0  0  0  0  0  0  0  0  0  0  0
  -90.3120   27.0663   -2.5045 O   0  0  0  0  0  0  0  0  0  0  0  0
  -88.4780   26.1770   -1.2221 C   0  0  0  0  0  0  0  0  0  0  0  0
  -87.6911   26.2308   -0.1040 C   0  0  0  0  0  0  0  0  0  0  0  0
  -91.1479   26.4974   -2.4428 H   0  0  0  0  0  0  0  0  0  0  0  0
 16 17  1  0  0  0
 17 18  2  0  0  0
 17 10  1  0  0  0
 10 11  2  0  0  0
 11 12  1  0  0  0
 12 13  2  0  0  0
 13  8  1  0  0  0
  8  1  1  0  0  0
  1  2  2  0  0  0
  2  3  1  0  0  0
  3 21  1  0  0  0
 21 23  1  0  0  0
 23 24  2  0  0  0
 24 25  1  0  0  0
 25 26  2  0  0  0
 26 27  1  0  0  0
 26 28  1  0  0  0
 28 29  2  0  0  0
  3  4  2  0  0  0
  4  5  1  0  0  0
  5  6  2  0  0  0
  6  7  1  0  0  0
 13 14  1  0  0  0
 14 15  2  0  0  0
 15 10  1  0  0  0
  6  1  1  0  0  0
 29 23  1  0  0  0
 16 19  1  0  0  0
 16 20  1  0  0  0
  8  9  1  0  0  0
 21 22  1  0  0  0
 27 30  1  0  0  0
M  END
> <minimizedAffinity>
-8.61741

> <CNNscore>
0.2931001782

> <CNNaffinity>
6.4632635117

> <CNN_VS>
1.8943836689

> <CNNaffinity_variance>
0.1675377041

$$$$
[H]Oc1c([H])c([H])c(N([H])c2nc([H])c(F)c(N([H])c3c([H])c([H])c(C(=O)N([H])[H])c([H])c3[H])n2)c([H])c1[H]


 30 32  0  0  0  0  0  0  0  0999 V2000
  -84.5540   29.5961    1.5567 C   0  0  0  0  0  0  0  0  0  0  0  0
  -85.5987   28.7850    1.5696 N   0  0  0  0  0  0  0  0  0  0  0  0
  -85.5122   27.5013    2.0239 C   0  0  0  0  0  0  0  0  0  0  0  0
  -84.3165   27.0813    2.4636 N   0  0  0  0  0  0  0  0  0  0  0  0
  -83.2268   27.8397    2.4798 C   0  0  0  0  0  0  0  0  0  0  0  0
  -83.3076   29.1360    2.0227 C   0  0  0  0  0  0  0  0  0  0  0  0
  -82.2385   29.9516    2.0150 F   0  0  0  0  0  0  0  0  0  0  0  0
  -84.5991   30.9283    1.0717 N   0  0  0  0  0  0  0  0  0  0  0  0
  -83.7789   31.5581    1.3204 H   0  0  0  0  0  0  0  0  0  0  0  0
  -87.5191   32.8183   -1.3085 C   0  0  0  0  0  0  0  0  0  0  0  0
  -87.7176   31.5743   -0.8078 C   0  0  0  0  0  0  0  0  0  0  0  0
  -86.7758   30.9184   -0.0072 C   0  0  0  0  0  0  0  0  0  0  0  0
  -85.6105   31.5254    0.2956 C   0  0  0  0  0  0  0  0  0  0  0  0
  -85.3798   32.8211   -0.2132 C   0  0  0  0  0  0  0  0  0  0  0  0
  -86.3148   33.4412   -0.9926 C   0  0  0  0  0  0  0  0  0  0  0  0
  -89.8015   33.0003   -2.2658 N   0  0  0  0  0  0  0  0  0  0  0  0
  -88.4968   33.5065   -2.1433 C   0  0  0  0  0  0  0  0  0  0  0  0
  -88.1691   34.5461   -2.7478 O   0  0  0  0  0  0  0  0  0  0  0  0
  -90.0434   32.3951   -3.0731 H   0  0  0  0  0  0  0  0  0  0  0  0
  -90.5382   33.2132   -1.5699 H   0  0  0  0  0  0  0  0  0  0  0  0
  -86.6656   26.6991    1.9754 N   0  0  0  0  0  0  0  0  0  0  0  0
  -86.5404   25.6539    2.1209 H   0  0  0  0  0  0  0  0  0  0  0  0
  -87.9603   27.1714    1.7509 C   0  0  0  0  0  0  0  0  0  0  0  0
  -88.4488   27.5467    0.5345 C   0  0  0  0  0  0  0  0  0  0  0  0
  -89.7581   28.0462    0.3599 C   0  0  0  0  0  0  0  0  0  0  0  0
  -90.5836   28.1628    1.4516 C   0  0  0  0  0  0  0  0  0  0  0  0
  -91.8771   28.6547    1.2891 O   0  0  0  0  0  0  0  0  0  0  0  0
  -90.1293   27.7927    2.7037 C   0  0  0  0  0  0  0  0  0  0  0  0
  -88.8547   27.3132    2.8367 C   0  0  0  0  0  0  0  0  0  0  0  0
  -91.9949   29.6571    1.3754 H   0  0  0  0  0  0  0  0  0  0  0  0
 16 17  1  0  0  0
 17 18  2  0  0  0
 17 10  1  0  0  0
 10 11  2  0  0  0
 11 12  1  0  0  0
 12 13  2  0  0  0
 13  8  1  0  0  0
  8  1  1  0  0  0
  1  2  2  0  0  0
  2  3  1  0  0  0
  3 21  1  0  0  0
 21 23  1  0  0  0
 23 24  2  0  0  0
 24 25  1  0  0  0
 25 26  2  0  0  0
 26 27  1  0  0  0
 26 28  1  0  0  0
 28 29  2  0  0  0
  3  4  2  0  0  0
  4  5  1  0  0  0
  5  6  2  0  0  0
  6  7  1  0  0  0
 13 14  1  0  0  0
 14 15  2  0  0  0
 15 10  1  0  0  0
  6  1  1  0  0  0
 29 23  1  0  0  0
 16 19  1  0  0  0
 16 20  1  0  0  0
  8  9  1  0  0  0
 21 22  1  0  0  0
 27 30  1  0  0  0
M  END
> <minimizedAffinity>
-9.00090

> <CNNscore>
0.2349085510

> <CNNaffinity>
6.3833141327

> <CNN_VS>
1.4994950294

> <CNNaffinity_variance>
0.0950160250

$$$$
[H]OC(=O)[C@@]1([H])N(C(=O)[C@@]([H])(N([H])[C@]([H])(C(=O)O[H])C([H])([H])C([H])([H])c2c([H])c([H])c([H])c([H])c2[H])C([H])([H])[H])C([H])([H])c2c([H])c([H])c([H])c([H])c2C1([H])[H]


 33 35  0  0  0  0  0  0  0  0999 V2000
  -90.0192   26.0902   -0.6727 C   0  0  0  0  0  0  0  0  0  0  0  0
  -88.7545   26.9540   -0.8018 C   0  0  0  0  0  0  0  0  0  0  0  0
  -89.0494   27.9752   -1.8108 C   0  0  0  0  0  0  0  0  0  0  0  0
  -88.8488   27.6380   -3.0294 O   0  0  0  0  0  0  0  0  0  0  0  0
  -89.5281   29.2829   -1.5828 N   0  0  0  0  0  0  0  0  0  0  0  0
  -89.7113   30.1589   -2.7634 C   0  0  0  0  0  0  0  0  0  0  0  0
  -88.8165   31.3552   -2.5438 C   0  0  0  0  0  0  0  0  0  0  0  0
  -87.9518   31.8415   -3.4871 C   0  0  0  0  0  0  0  0  0  0  0  0
  -87.1357   32.9406   -3.1740 C   0  0  0  0  0  0  0  0  0  0  0  0
  -87.2378   33.4934   -1.9153 C   0  0  0  0  0  0  0  0  0  0  0  0
  -88.1334   32.9727   -0.9721 C   0  0  0  0  0  0  0  0  0  0  0  0
  -88.9377   31.8962   -1.2700 C   0  0  0  0  0  0  0  0  0  0  0  0
  -89.9179   31.3311   -0.3446 C   0  0  0  0  0  0  0  0  0  0  0  0
  -89.8616   29.8377   -0.3015 C   0  0  0  0  0  0  0  0  0  0  0  0
  -91.1378   29.2693    0.2222 C   0  0  0  0  0  0  0  0  0  0  0  0
  -91.1933   28.8726    1.3972 O   0  0  0  0  0  0  0  0  0  0  0  0
  -92.2245   29.1956   -0.6003 O   0  0  0  0  0  0  0  0  0  0  0  0
  -92.6267   30.0728   -0.9265 H   0  0  0  0  0  0  0  0  0  0  0  0
  -88.5710   27.5285    0.5266 N   0  0  0  0  0  0  0  0  0  0  0  0
  -88.9679   28.5014    0.4785 H   0  0  0  0  0  0  0  0  0  0  0  0
  -87.1557   27.6651    0.7817 C   0  0  0  0  0  0  0  0  0  0  0  0
  -86.6998   26.7111    1.8350 C   0  0  0  0  0  0  0  0  0  0  0  0
  -85.4965   26.6309    2.1870 O   0  0  0  0  0  0  0  0  0  0  0  0
  -87.5888   25.8625    2.4801 O   0  0  0  0  0  0  0  0  0  0  0  0
  -88.3239   25.3535    2.0112 H   0  0  0  0  0  0  0  0  0  0  0  0
  -86.7763   29.0835    1.1234 C   0  0  0  0  0  0  0  0  0  0  0  0
  -86.2137   29.8220   -0.0681 C   0  0  0  0  0  0  0  0  0  0  0  0
  -84.9204   30.4768    0.2496 C   0  0  0  0  0  0  0  0  0  0  0  0
  -84.5917   31.7313   -0.2487 C   0  0  0  0  0  0  0  0  0  0  0  0
  -83.3997   32.3648    0.0247 C   0  0  0  0  0  0  0  0  0  0  0  0
  -82.4689   31.7408    0.8323 C   0  0  0  0  0  0  0  0  0  0  0  0
  -82.7677   30.4818    1.3483 C   0  0  0  0  0  0  0  0  0  0  0  0
  -83.9684   29.8786    1.0545 C   0  0  0  0  0  0  0  0  0  0  0  0
  1  2  1  0  0  0
  2 19  1  0  0  0
 19 21  1  0  0  0
 21 26  1  0  0  0
 26 27  1  0  0  0
 27 28  1  0  0  0
 28 29  2  0  0  0
 29 30  1  0  0  0
 30 31  2  0  0  0
 31 32  1  0  0  0
 32 33  2  0  0  0
 21 22  1  0  0  0
 22 23  2  0  0  0
 22 24  1  0  0  0
  2  3  1  0  0  0
  3  4  2  0  0  0
  3  5  1  0  0  0
  5  6  1  0  0  0
  6  7  1  0  0  0
  7  8  2  0  0  0
  8  9  1  0  0  0
  9 10  2  0  0  0
 10 11  1  0  0  0
 11 12  2  0  0  0
 12 13  1  0  0  0
 13 14  1  0  0  0
 14 15  1  0  0  0
 15 16  2  0  0  0
 15 17  1  0  0  0
 33 28  1  0  0  0
 14  5  1  0  0  0
 12  7  1  0  0  0
 19 20  1  0  0  0
 24 25  1  0  0  0
 17 18  1  0  0  0
M  END
> <minimizedAffinity>
-8.90945

> <CNNscore>
0.3280088902

> <CNNaffinity>
5.9695782661

> <CNN_VS>
1.9580746889

> <CNNaffinity_variance>
0.3486815393

$$$$
[H]OC(=O)[C@@]1([H])N(C(=O)[C@@]([H])(N([H])[C@]([H])(C(=O)O[H])C([H])([H])C([H])([H])c2c([H])c([H])c([H])c([H])c2[H])C([H])([H])[H])C([H])([H])c2c([H])c([H])c([H])c([H])c2C1([H])[H]


 33 35  0  0  0  0  0  0  0  0999 V2000
  -89.5290   32.1095   -0.4439 C   0  0  0  0  0  0  0  0  0  0  0  0
  -88.6136   31.3688   -1.4316 C   0  0  0  0  0  0  0  0  0  0  0  0
  -87.8731   32.3990   -2.1652 C   0  0  0  0  0  0  0  0  0  0  0  0
  -86.7535   32.7574   -1.6580 O   0  0  0  0  0  0  0  0  0  0  0  0
  -88.2610   33.0341   -3.3641 N   0  0  0  0  0  0  0  0  0  0  0  0
  -87.3655   34.0850   -3.9013 C   0  0  0  0  0  0  0  0  0  0  0  0
  -88.1860   35.3515   -3.9542 C   0  0  0  0  0  0  0  0  0  0  0  0
  -87.7596   36.5550   -3.4604 C   0  0  0  0  0  0  0  0  0  0  0  0
  -88.6117   37.6694   -3.5270 C   0  0  0  0  0  0  0  0  0  0  0  0
  -89.8581   37.5065   -4.0930 C   0  0  0  0  0  0  0  0  0  0  0  0
  -90.2647   36.2614   -4.5900 C   0  0  0  0  0  0  0  0  0  0  0  0
  -89.4363   35.1638   -4.5298 C   0  0  0  0  0  0  0  0  0  0  0  0
  -89.7863   33.8490   -5.0640 C   0  0  0  0  0  0  0  0  0  0  0  0
  -89.4493   32.7436   -4.1153 C   0  0  0  0  0  0  0  0  0  0  0  0
  -89.3349   31.4401   -4.8321 C   0  0  0  0  0  0  0  0  0  0  0  0
  -88.2259   31.0650   -5.2449 O   0  0  0  0  0  0  0  0  0  0  0  0
  -90.4530   30.6806   -5.0216 O   0  0  0  0  0  0  0  0  0  0  0  0
  -90.9111   30.3046   -4.1931 H   0  0  0  0  0  0  0  0  0  0  0  0
  -87.7425   30.5626   -0.5833 N   0  0  0  0  0  0  0  0  0  0  0  0
  -86.8357   31.0912   -0.5145 H   0  0  0  0  0  0  0  0  0  0  0  0
  -87.4535   29.3207   -1.2622 C   0  0  0  0  0  0  0  0  0  0  0  0
  -88.6683   28.7753   -1.9361 C   0  0  0  0  0  0  0  0  0  0  0  0
  -89.6774   28.3983   -1.2896 O   0  0  0  0  0  0  0  0  0  0  0  0
  -88.7417   28.6584   -3.3172 O   0  0  0  0  0  0  0  0  0  0  0  0
  -87.9863   28.3205   -3.8957 H   0  0  0  0  0  0  0  0  0  0  0  0
  -86.8328   28.3025   -0.3399 C   0  0  0  0  0  0  0  0  0  0  0  0
  -86.6372   28.8471    1.0554 C   0  0  0  0  0  0  0  0  0  0  0  0
  -85.2066   28.8504    1.4503 C   0  0  0  0  0  0  0  0  0  0  0  0
  -84.6567   27.8348    2.2223 C   0  0  0  0  0  0  0  0  0  0  0  0
  -83.3347   27.8096    2.6079 C   0  0  0  0  0  0  0  0  0  0  0  0
  -82.4946   28.8348    2.2194 C   0  0  0  0  0  0  0  0  0  0  0  0
  -83.0148   29.8689    1.4445 C   0  0  0  0  0  0  0  0  0  0  0  0
  -84.3405   29.8617    1.0775 C   0  0  0  0  0  0  0  0  0  0  0  0
  1  2  1  0  0  0
  2 19  1  0  0  0
 19 21  1  0  0  0
 21 26  1  0  0  0
 26 27  1  0  0  0
 27 28  1  0  0  0
 28 29  2  0  0  0
 29 30  1  0  0  0
 30 31  2  0  0  0
 31 32  1  0  0  0
 32 33  2  0  0  0
 21 22  1  0  0  0
 22 23  2  0  0  0
 22 24  1  0  0  0
  2  3  1  0  0  0
  3  4  2  0  0  0
  3  5  1  0  0  0
  5  6  1  0  0  0
  6  7  1  0  0  0
  7  8  2  0  0  0
  8  9  1  0  0  0
  9 10  2  0  0  0
 10 11  1  0  0  0
 11 12  2  0  0  0
 12 13  1  0  0  0
 13 14  1  0  0  0
 14 15  1  0  0  0
 15 16  2  0  0  0
 15 17  1  0  0  0
 33 28  1  0  0  0
 14  5  1  0  0  0
 12  7  1  0  0  0
 19 20  1  0  0  0
 24 25  1  0  0  0
 17 18  1  0  0  0
M  END
> <minimizedAffinity>
-9.04726

> <CNNscore>
0.2099429518

> <CNNaffinity>
5.4542493820

> <CNN_VS>
1.1450811625

> <CNNaffinity_variance>
0.2925792336

$$$$
[H]OC(=O)[C@@]1([H])N(C(=O)[C@@]([H])(N([H])[C@]([H])(C(=O)O[H])C([H])([H])C([H])([H])c2c([H])c([H])c([H])c([H])c2[H])C([H])([H])[H])C([H])([H])c2c([H])c([H])c([H])c([H])c2C1([H])[H]


 33 35  0  0  0  0  0  0  0  0999 V2000
  -87.6576   28.5154   -3.1091 C   0  0  0  0  0  0  0  0  0  0  0  0
  -87.8500   28.1914   -1.6191 C   0  0  0  0  0  0  0  0  0  0  0  0
  -87.5920   29.4342   -0.8864 C   0  0  0  0  0  0  0  0  0  0  0  0
  -88.3226   30.4369   -1.2024 O   0  0  0  0  0  0  0  0  0  0  0  0
  -86.6294   29.6415    0.1243 N   0  0  0  0  0  0  0  0  0  0  0  0
  -86.5196   31.0047    0.6941 C   0  0  0  0  0  0  0  0  0  0  0  0
  -85.1052   31.4608    0.4269 C   0  0  0  0  0  0  0  0  0  0  0  0
  -84.7882   32.6761   -0.1175 C   0  0  0  0  0  0  0  0  0  0  0  0
  -83.4418   32.9943   -0.3590 C   0  0  0  0  0  0  0  0  0  0  0  0
  -82.4811   32.0603   -0.0350 C   0  0  0  0  0  0  0  0  0  0  0  0
  -82.8381   30.8252    0.5216 C   0  0  0  0  0  0  0  0  0  0  0  0
  -84.1548   30.5048    0.7624 C   0  0  0  0  0  0  0  0  0  0  0  0
  -84.5890   29.2507    1.3751 C   0  0  0  0  0  0  0  0  0  0  0  0
  -85.7487   28.6401    0.6557 C   0  0  0  0  0  0  0  0  0  0  0  0
  -86.4806   27.6835    1.5362 C   0  0  0  0  0  0  0  0  0  0  0  0
  -86.3271   26.4626    1.3728 O   0  0  0  0  0  0  0  0  0  0  0  0
  -87.3074   28.1677    2.5084 O   0  0  0  0  0  0  0  0  0  0  0  0
  -86.8811   28.7008    3.2645 H   0  0  0  0  0  0  0  0  0  0  0  0
  -89.2430   27.7703   -1.5168 N   0  0  0  0  0  0  0  0  0  0  0  0
  -89.7901   28.6359   -1.2767 H   0  0  0  0  0  0  0  0  0  0  0  0
  -89.3739   26.8674   -0.3968 C   0  0  0  0  0  0  0  0  0  0  0  0
  -89.0226   25.4693   -0.7831 C   0  0  0  0  0  0  0  0  0  0  0  0
  -89.4925   24.9234   -1.8124 O   0  0  0  0  0  0  0  0  0  0  0  0
  -88.1547   24.7012   -0.0194 O   0  0  0  0  0  0  0  0  0  0  0  0
  -88.1735   24.6634    0.9893 H   0  0  0  0  0  0  0  0  0  0  0  0
  -90.7434   26.9369    0.2294 C   0  0  0  0  0  0  0  0  0  0  0  0
  -90.9402   25.8704    1.2808 C   0  0  0  0  0  0  0  0  0  0  0  0
  -90.6233   26.3722    2.6410 C   0  0  0  0  0  0  0  0  0  0  0  0
  -90.1954   25.5237    3.6544 C   0  0  0  0  0  0  0  0  0  0  0  0
  -89.8962   25.9569    4.9272 C   0  0  0  0  0  0  0  0  0  0  0  0
  -90.0204   27.2977    5.2347 C   0  0  0  0  0  0  0  0  0  0  0  0
  -90.4473   28.1754    4.2407 C   0  0  0  0  0  0  0  0  0  0  0  0
  -90.7375   27.7079    2.9801 C   0  0  0  0  0  0  0  0  0  0  0  0
  1  2  1  0  0  0
  2 19  1  0  0  0
 19 21  1  0  0  0
 21 26  1  0  0  0
 26 27  1  0  0  0
 27 28  1  0  0  0
 28 29  2  0  0  0
 29 30  1  0  0  0
 30 31  2  0  0  0
 31 32  1  0  0  0
 32 33  2  0  0  0
 21 22  1  0  0  0
 22 23  2  0  0  0
 22 24  1  0  0  0
  2  3  1  0  0  0
  3  4  2  0  0  0
  3  5  1  0  0  0
  5  6  1  0  0  0
  6  7  1  0  0  0
  7  8  2  0  0  0
  8  9  1  0  0  0
  9 10  2  0  0  0
 10 11  1  0  0  0
 11 12  2  0  0  0
 12 13  1  0  0  0
 13 14  1  0  0  0
 14 15  1  0  0  0
 15 16  2  0  0  0
 15 17  1  0  0  0
 33 28  1  0  0  0
 14  5  1  0  0  0
 12  7  1  0  0  0
 19 20  1  0  0  0
 24 25  1  0  0  0
 17 18  1  0  0  0
M  END
> <minimizedAffinity>
-8.41030

> <CNNscore>
0.1970064491

> <CNNaffinity>
5.7607355118

> <CNN_VS>
1.1349020004

> <CNNaffinity_variance>
0.1219092607

$$$$
[H]OC(=O)[C@@]1([H])N(C(=O)[C@@]([H])(N([H])[C@]([H])(C(=O)O[H])C([H])([H])C([H])([H])c2c([H])c([H])c([H])c([H])c2[H])C([H])([H])[H])C([H])([H])c2c([H])c([H])c([H])c([H])c2C1([H])[H]


 33 35  0  0  0  0  0  0  0  0999 V2000
  -86.6391   31.3489   -0.2086 C   0  0  0  0  0  0  0  0  0  0  0  0
  -87.5931   30.8936   -1.3242 C   0  0  0  0  0  0  0  0  0  0  0  0
  -88.9006   30.6872   -0.6950 C   0  0  0  0  0  0  0  0  0  0  0  0
  -89.4665   31.7309   -0.2157 O   0  0  0  0  0  0  0  0  0  0  0  0
  -89.5975   29.4675   -0.5621 N   0  0  0  0  0  0  0  0  0  0  0  0
  -90.8930   29.4955    0.1561 C   0  0  0  0  0  0  0  0  0  0  0  0
  -90.7415   28.5650    1.3356 C   0  0  0  0  0  0  0  0  0  0  0  0
  -91.0902   28.8982    2.6168 C   0  0  0  0  0  0  0  0  0  0  0  0
  -90.8787   27.9736    3.6524 C   0  0  0  0  0  0  0  0  0  0  0  0
  -90.3219   26.7529    3.3355 C   0  0  0  0  0  0  0  0  0  0  0  0
  -89.9763   26.4419    2.0139 C   0  0  0  0  0  0  0  0  0  0  0  0
  -90.1805   27.3414    0.9923 C   0  0  0  0  0  0  0  0  0  0  0  0
  -89.8772   27.0635   -0.4104 C   0  0  0  0  0  0  0  0  0  0  0  0
  -89.1618   28.1980   -1.0712 C   0  0  0  0  0  0  0  0  0  0  0  0
  -89.3046   28.1285   -2.5548 C   0  0  0  0  0  0  0  0  0  0  0  0
  -90.4165   28.3231   -3.0713 O   0  0  0  0  0  0  0  0  0  0  0  0
  -88.2087   27.8524   -3.3200 O   0  0  0  0  0  0  0  0  0  0  0  0
  -87.4519   28.5343   -3.3196 H   0  0  0  0  0  0  0  0  0  0  0  0
  -87.6049   32.0064   -2.2674 N   0  0  0  0  0  0  0  0  0  0  0  0
  -87.6686   32.8795   -1.6842 H   0  0  0  0  0  0  0  0  0  0  0  0
  -88.8158   31.9370   -3.0521 C   0  0  0  0  0  0  0  0  0  0  0  0
  -88.5907   31.2060   -4.3336 C   0  0  0  0  0  0  0  0  0  0  0  0
  -87.4438   31.0569   -4.8242 O   0  0  0  0  0  0  0  0  0  0  0  0
  -89.6440   30.6525   -5.0484 O   0  0  0  0  0  0  0  0  0  0  0  0
  -90.5281   31.1158   -5.2000 H   0  0  0  0  0  0  0  0  0  0  0  0
  -89.4123   33.3001   -3.2943 C   0  0  0  0  0  0  0  0  0  0  0  0
  -88.3996   34.4040   -3.1006 C   0  0  0  0  0  0  0  0  0  0  0  0
  -88.9592   35.7331   -3.4509 C   0  0  0  0  0  0  0  0  0  0  0  0
  -88.2112   36.8979   -3.3332 C   0  0  0  0  0  0  0  0  0  0  0  0
  -88.7014   38.1462   -3.6470 C   0  0  0  0  0  0  0  0  0  0  0  0
  -89.9990   38.2708   -4.1036 C   0  0  0  0  0  0  0  0  0  0  0  0
  -90.7761   37.1219   -4.2330 C   0  0  0  0  0  0  0  0  0  0  0  0
  -90.2538   35.8910   -3.9103 C   0  0  0  0  0  0  0  0  0  0  0  0
  1  2  1  0  0  0
  2 19  1  0  0  0
 19 21  1  0  0  0
 21 26  1  0  0  0
 26 27  1  0  0  0
 27 28  1  0  0  0
 28 29  2  0  0  0
 29 30  1  0  0  0
 30 31  2  0  0  0
 31 32  1  0  0  0
 32 33  2  0  0  0
 21 22  1  0  0  0
 22 23  2  0  0  0
 22 24  1  0  0  0
  2  3  1  0  0  0
  3  4  2  0  0  0
  3  5  1  0  0  0
  5  6  1  0  0  0
  6  7  1  0  0  0
  7  8  2  0  0  0
  8  9  1  0  0  0
  9 10  2  0  0  0
 10 11  1  0  0  0
 11 12  2  0  0  0
 12 13  1  0  0  0
 13 14  1  0  0  0
 14 15  1  0  0  0
 15 16  2  0  0  0
 15 17  1  0  0  0
 33 28  1  0  0  0
 14  5  1  0  0  0
 12  7  1  0  0  0
 19 20  1  0  0  0
 24 25  1  0  0  0
 17 18  1  0  0  0
M  END
> <minimizedAffinity>
-7.98069

> <CNNscore>
0.1601194888

> <CNNaffinity>
5.2090139389

> <CNN_VS>
0.8340646625

> <CNNaffinity_variance>
0.1975572407

$$$$
[H]OC(=O)[C@@]1([H])N(C(=O)[C@@]([H])(N([H])[C@]([H])(C(=O)O[H])C([H])([H])C([H])([H])c2c([H])c([H])c([H])c([H])c2[H])C([H])([H])[H])C([H])([H])c2c([H])c([H])c([H])c([H])c2C1([H])[H]


 33 35  0  0  0  0  0  0  0  0999 V2000
  -89.3449   31.9501   -0.3783 C   0  0  0  0  0  0  0  0  0  0  0  0
  -88.6625   31.2036   -1.5355 C   0  0  0  0  0  0  0  0  0  0  0  0
  -87.9655   32.2178   -2.3313 C   0  0  0  0  0  0  0  0  0  0  0  0
  -86.7767   32.5096   -1.9562 O   0  0  0  0  0  0  0  0  0  0  0  0
  -88.4628   32.9027   -3.4604 N   0  0  0  0  0  0  0  0  0  0  0  0
  -87.5874   33.9250   -4.0797 C   0  0  0  0  0  0  0  0  0  0  0  0
  -88.3446   35.2293   -4.0055 C   0  0  0  0  0  0  0  0  0  0  0  0
  -87.8028   36.3977   -3.5414 C   0  0  0  0  0  0  0  0  0  0  0  0
  -88.6004   37.5519   -3.4802 C   0  0  0  0  0  0  0  0  0  0  0  0
  -89.9123   37.4628   -3.8941 C   0  0  0  0  0  0  0  0  0  0  0  0
  -90.4370   36.2520   -4.3646 C   0  0  0  0  0  0  0  0  0  0  0  0
  -89.6627   35.1158   -4.4289 C   0  0  0  0  0  0  0  0  0  0  0  0
  -90.1391   33.8337   -4.9448 C   0  0  0  0  0  0  0  0  0  0  0  0
  -89.7456   32.6884   -4.0679 C   0  0  0  0  0  0  0  0  0  0  0  0
  -89.7830   31.4010   -4.8210 C   0  0  0  0  0  0  0  0  0  0  0  0
  -90.7966   30.6869   -4.7604 O   0  0  0  0  0  0  0  0  0  0  0  0
  -88.7008   31.0299   -5.5654 O   0  0  0  0  0  0  0  0  0  0  0  0
  -88.4595   31.6122   -6.3656 H   0  0  0  0  0  0  0  0  0  0  0  0
  -87.7374   30.2862   -0.8792 N   0  0  0  0  0  0  0  0  0  0  0  0
  -86.8203   30.3898   -1.3838 H   0  0  0  0  0  0  0  0  0  0  0  0
  -88.1888   28.9324   -1.1035 C   0  0  0  0  0  0  0  0  0  0  0  0
  -88.5524   28.7117   -2.5341 C   0  0  0  0  0  0  0  0  0  0  0  0
  -89.6794   28.2748   -2.8763 O   0  0  0  0  0  0  0  0  0  0  0  0
  -87.6576   28.9807   -3.5605 O   0  0  0  0  0  0  0  0  0  0  0  0
  -86.6776   28.7396   -3.5323 H   0  0  0  0  0  0  0  0  0  0  0  0
  -89.3216   28.5536   -0.1838 C   0  0  0  0  0  0  0  0  0  0  0  0
  -89.0907   27.2155    0.4778 C   0  0  0  0  0  0  0  0  0  0  0  0
  -89.5613   27.2079    1.8852 C   0  0  0  0  0  0  0  0  0  0  0  0
  -90.4781   28.1390    2.3569 C   0  0  0  0  0  0  0  0  0  0  0  0
  -90.9326   28.1610    3.6569 C   0  0  0  0  0  0  0  0  0  0  0  0
  -90.4674   27.2200    4.5547 C   0  0  0  0  0  0  0  0  0  0  0  0
  -89.5470   26.2719    4.1135 C   0  0  0  0  0  0  0  0  0  0  0  0
  -89.1148   26.2796    2.8077 C   0  0  0  0  0  0  0  0  0  0  0  0
  1  2  1  0  0  0
  2 19  1  0  0  0
 19 21  1  0  0  0
 21 26  1  0  0  0
 26 27  1  0  0  0
 27 28  1  0  0  0
 28 29  2  0  0  0
 29 30  1  0  0  0
 30 31  2  0  0  0
 31 32  1  0  0  0
 32 33  2  0  0  0
 21 22  1  0  0  0
 22 23  2  0  0  0
 22 24  1  0  0  0
  2  3  1  0  0  0
  3  4  2  0  0  0
  3  5  1  0  0  0
  5  6  1  0  0  0
  6  7  1  0  0  0
  7  8  2  0  0  0
  8  9  1  0  0  0
  9 10  2  0  0  0
 10 11  1  0  0  0
 11 12  2  0  0  0
 12 13  1  0  0  0
 13 14  1  0  0  0
 14 15  1  0  0  0
 15 16  2  0  0  0
 15 17  1  0  0  0
 33 28  1  0  0  0
 14  5  1  0  0  0
 12  7  1  0  0  0
 19 20  1  0  0  0
 24 25  1  0  0  0
 17 18  1  0  0  0
M  END
> <minimizedAffinity>
-7.60998

> <CNNscore>
0.1448884010

> <CNNaffinity>
5.2915296555

> <CNN_VS>
0.7666812539

> <CNNaffinity_variance>
0.1796507388

$$$$
[H]OC(=O)[C@@]1([H])N(C(=O)[C@@]([H])(N([H])[C@]([H])(C(=O)O[H])C([H])([H])C([H])([H])c2c([H])c([H])c([H])c([H])c2[H])C([H])([H])[H])C([H])([H])c2c([H])c([H])c([H])c([H])c2C1([H])[H]


 33 35  0  0  0  0  0  0  0  0999 V2000
  -88.3140   30.4458   -0.4315 C   0  0  0  0  0  0  0  0  0  0  0  0
  -88.3330   29.1767    0.4352 C   0  0  0  0  0  0  0  0  0  0  0  0
  -89.6679   28.5905    0.2854 C   0  0  0  0  0  0  0  0  0  0  0  0
  -90.5322   28.9237    1.1691 O   0  0  0  0  0  0  0  0  0  0  0  0
  -90.0988   27.7031   -0.7235 N   0  0  0  0  0  0  0  0  0  0  0  0
  -91.4912   27.2033   -0.6448 C   0  0  0  0  0  0  0  0  0  0  0  0
  -91.3943   25.7001   -0.5396 C   0  0  0  0  0  0  0  0  0  0  0  0
  -92.0672   24.9582    0.3936 C   0  0  0  0  0  0  0  0  0  0  0  0
  -91.8842   23.5663    0.4315 C   0  0  0  0  0  0  0  0  0  0  0  0
  -91.0246   22.9947   -0.4822 C   0  0  0  0  0  0  0  0  0  0  0  0
  -90.3510   23.7818   -1.4253 C   0  0  0  0  0  0  0  0  0  0  0  0
  -90.5246   25.1465   -1.4706 C   0  0  0  0  0  0  0  0  0  0  0  0
  -89.8814   26.0171   -2.4529 C   0  0  0  0  0  0  0  0  0  0  0  0
  -89.3039   27.2468   -1.8284 C   0  0  0  0  0  0  0  0  0  0  0  0
  -89.1141   28.3234   -2.8436 C   0  0  0  0  0  0  0  0  0  0  0  0
  -90.0882   29.0048   -3.2011 O   0  0  0  0  0  0  0  0  0  0  0  0
  -87.8707   28.5417   -3.3626 O   0  0  0  0  0  0  0  0  0  0  0  0
  -87.1470   28.8701   -2.7254 H   0  0  0  0  0  0  0  0  0  0  0  0
  -87.2920   28.3307   -0.1383 N   0  0  0  0  0  0  0  0  0  0  0  0
  -87.7926   27.6013   -0.7072 H   0  0  0  0  0  0  0  0  0  0  0  0
  -86.6160   27.6361    0.9328 C   0  0  0  0  0  0  0  0  0  0  0  0
  -87.2948   26.3472    1.2570 C   0  0  0  0  0  0  0  0  0  0  0  0
  -87.7749   26.1135    2.3942 O   0  0  0  0  0  0  0  0  0  0  0  0
  -87.4292   25.3395    0.3120 O   0  0  0  0  0  0  0  0  0  0  0  0
  -86.6956   25.0599   -0.3228 H   0  0  0  0  0  0  0  0  0  0  0  0
  -86.4616   28.4996    2.1589 C   0  0  0  0  0  0  0  0  0  0  0  0
  -85.0130   28.6760    2.5486 C   0  0  0  0  0  0  0  0  0  0  0  0
  -84.3899   29.8263    1.8479 C   0  0  0  0  0  0  0  0  0  0  0  0
  -85.1349   30.9227    1.4320 C   0  0  0  0  0  0  0  0  0  0  0  0
  -84.5880   32.0041    0.7774 C   0  0  0  0  0  0  0  0  0  0  0  0
  -83.2330   32.0216    0.5102 C   0  0  0  0  0  0  0  0  0  0  0  0
  -82.4572   30.9374    0.9141 C   0  0  0  0  0  0  0  0  0  0  0  0
  -83.0370   29.8739    1.5659 C   0  0  0  0  0  0  0  0  0  0  0  0
  1  2  1  0  0  0
  2 19  1  0  0  0
 19 21  1  0  0  0
 21 26  1  0  0  0
 26 27  1  0  0  0
 27 28  1  0  0  0
 28 29  2  0  0  0
 29 30  1  0  0  0
 30 31  2  0  0  0
 31 32  1  0  0  0
 32 33  2  0  0  0
 21 22  1  0  0  0
 22 23  2  0  0  0
 22 24  1  0  0  0
  2  3  1  0  0  0
  3  4  2  0  0  0
  3  5  1  0  0  0
  5  6  1  0  0  0
  6  7  1  0  0  0
  7  8  2  0  0  0
  8  9  1  0  0  0
  9 10  2  0  0  0
 10 11  1  0  0  0
 11 12  2  0  0  0
 12 13  1  0  0  0
 13 14  1  0  0  0
 14 15  1  0  0  0
 15 16  2  0  0  0
 15 17  1  0  0  0
 33 28  1  0  0  0
 14  5  1  0  0  0
 12  7  1  0  0  0
 19 20  1  0  0  0
 24 25  1  0  0  0
 17 18  1  0  0  0
M  END
> <minimizedAffinity>
-8.41220

> <CNNscore>
0.1444749683

> <CNNaffinity>
5.0896387100

> <CNN_VS>
0.7353253961

> <CNNaffinity_variance>
0.9551782608

$$$$
[H]OC(=O)[C@@]1([H])N(C(=O)[C@@]([H])(N([H])[C@]([H])(C(=O)O[H])C([H])([H])C([H])([H])c2c([H])c([H])c([H])c([H])c2[H])C([H])([H])[H])C([H])([H])c2c([H])c([H])c([H])c([H])c2C1([H])[H]


 33 35  0  0  0  0  0  0  0  0999 V2000
  -87.2303   27.4255   -1.7532 C   0  0  0  0  0  0  0  0  0  0  0  0
  -88.2028   28.6134   -1.8261 C   0  0  0  0  0  0  0  0  0  0  0  0
  -88.9707   28.5996   -0.5779 C   0  0  0  0  0  0  0  0  0  0  0  0
  -88.4792   29.2730    0.3937 O   0  0  0  0  0  0  0  0  0  0  0  0
  -90.1870   27.9267   -0.3349 N   0  0  0  0  0  0  0  0  0  0  0  0
  -90.7598   28.0215    1.0281 C   0  0  0  0  0  0  0  0  0  0  0  0
  -90.8484   26.6065    1.5476 C   0  0  0  0  0  0  0  0  0  0  0  0
  -90.3935   26.2188    2.7792 C   0  0  0  0  0  0  0  0  0  0  0  0
  -90.4908   24.8699    3.1577 C   0  0  0  0  0  0  0  0  0  0  0  0
  -91.0466   23.9787    2.2648 C   0  0  0  0  0  0  0  0  0  0  0  0
  -91.5035   24.4073    1.0117 C   0  0  0  0  0  0  0  0  0  0  0  0
  -91.4129   25.7272    0.6322 C   0  0  0  0  0  0  0  0  0  0  0  0
  -91.9050   26.2435   -0.6437 C   0  0  0  0  0  0  0  0  0  0  0  0
  -90.9242   27.1614   -1.3001 C   0  0  0  0  0  0  0  0  0  0  0  0
  -91.6010   28.0452   -2.2934 C   0  0  0  0  0  0  0  0  0  0  0  0
  -92.5167   28.7954   -1.9197 O   0  0  0  0  0  0  0  0  0  0  0  0
  -91.2010   28.0144   -3.5981 O   0  0  0  0  0  0  0  0  0  0  0  0
  -90.2546   28.3284   -3.8064 H   0  0  0  0  0  0  0  0  0  0  0  0
  -87.3380   29.7839   -1.9283 N   0  0  0  0  0  0  0  0  0  0  0  0
  -87.0699   30.0326   -0.9421 H   0  0  0  0  0  0  0  0  0  0  0  0
  -88.1121   30.8892   -2.4439 C   0  0  0  0  0  0  0  0  0  0  0  0
  -88.4751   30.6762   -3.8757 C   0  0  0  0  0  0  0  0  0  0  0  0
  -87.6107   30.6531   -4.7870 O   0  0  0  0  0  0  0  0  0  0  0  0
  -89.7929   30.4919   -4.2710 O   0  0  0  0  0  0  0  0  0  0  0  0
  -90.5694   31.0295   -3.9142 H   0  0  0  0  0  0  0  0  0  0  0  0
  -87.4143   32.2106   -2.2446 C   0  0  0  0  0  0  0  0  0  0  0  0
  -87.2481   32.5484   -0.7818 C   0  0  0  0  0  0  0  0  0  0  0  0
  -85.8371   32.4146   -0.3420 C   0  0  0  0  0  0  0  0  0  0  0  0
  -84.8237   33.1973   -0.8809 C   0  0  0  0  0  0  0  0  0  0  0  0
  -83.5048   33.0959   -0.4969 C   0  0  0  0  0  0  0  0  0  0  0  0
  -83.1482   32.1771    0.4708 C   0  0  0  0  0  0  0  0  0  0  0  0
  -84.1408   31.3766    1.0315 C   0  0  0  0  0  0  0  0  0  0  0  0
  -85.4482   31.5048    0.6240 C   0  0  0  0  0  0  0  0  0  0  0  0
  1  2  1  0  0  0
  2 19  1  0  0  0
 19 21  1  0  0  0
 21 26  1  0  0  0
 26 27  1  0  0  0
 27 28  1  0  0  0
 28 29  2  0  0  0
 29 30  1  0  0  0
 30 31  2  0  0  0
 31 32  1  0  0  0
 32 33  2  0  0  0
 21 22  1  0  0  0
 22 23  2  0  0  0
 22 24  1  0  0  0
  2  3  1  0  0  0
  3  4  2  0  0  0
  3  5  1  0  0  0
  5  6  1  0  0  0
  6  7  1  0  0  0
  7  8  2  0  0  0
  8  9  1  0  0  0
  9 10  2  0  0  0
 10 11  1  0  0  0
 11 12  2  0  0  0
 12 13  1  0  0  0
 13 14  1  0  0  0
 14 15  1  0  0  0
 15 16  2  0  0  0
 15 17  1  0  0  0
 33 28  1  0  0  0
 14  5  1  0  0  0
 12  7  1  0  0  0
 19 20  1  0  0  0
 24 25  1  0  0  0
 17 18  1  0  0  0
M  END
> <minimizedAffinity>
-7.91317

> <CNNscore>
0.1444292516

> <CNNaffinity>
5.3428668976

> <CNN_VS>
0.7716662884

> <CNNaffinity_variance>
0.4069622457

$$$$
[H]OC(=O)[C@@]1([H])N(C(=O)[C@@]([H])(N([H])[C@]([H])(C(=O)O[H])C([H])([H])C([H])([H])c2c([H])c([H])c([H])c([H])c2[H])C([H])([H])[H])C([H])([H])c2c([H])c([H])c([H])c([H])c2C1([H])[H]


 33 35  0  0  0  0  0  0  0  0999 V2000
  -91.1585   28.8658    1.1123 C   0  0  0  0  0  0  0  0  0  0  0  0
  -90.0839   27.9308    0.5351 C   0  0  0  0  0  0  0  0  0  0  0  0
  -90.2335   27.9747   -0.9222 C   0  0  0  0  0  0  0  0  0  0  0  0
  -90.0252   29.1098   -1.4763 O   0  0  0  0  0  0  0  0  0  0  0  0
  -90.5807   26.9047   -1.7741 N   0  0  0  0  0  0  0  0  0  0  0  0
  -90.7172   27.1989   -3.2197 C   0  0  0  0  0  0  0  0  0  0  0  0
  -92.1380   26.8460   -3.5895 C   0  0  0  0  0  0  0  0  0  0  0  0
  -92.9671   27.6730   -4.2984 C   0  0  0  0  0  0  0  0  0  0  0  0
  -94.2851   27.2670   -4.5636 C   0  0  0  0  0  0  0  0  0  0  0  0
  -94.6975   26.0381   -4.0947 C   0  0  0  0  0  0  0  0  0  0  0  0
  -93.8243   25.2143   -3.3724 C   0  0  0  0  0  0  0  0  0  0  0  0
  -92.5308   25.6034   -3.1083 C   0  0  0  0  0  0  0  0  0  0  0  0
  -91.5608   24.7751   -2.3943 C   0  0  0  0  0  0  0  0  0  0  0  0
  -90.8067   25.5487   -1.3607 C   0  0  0  0  0  0  0  0  0  0  0  0
  -89.5271   24.8662   -1.0100 C   0  0  0  0  0  0  0  0  0  0  0  0
  -89.5044   24.0564   -0.0695 O   0  0  0  0  0  0  0  0  0  0  0  0
  -88.4016   25.1438   -1.7306 O   0  0  0  0  0  0  0  0  0  0  0  0
  -88.3962   24.8775   -2.7138 H   0  0  0  0  0  0  0  0  0  0  0  0
  -88.8215   28.5131    0.9773 N   0  0  0  0  0  0  0  0  0  0  0  0
  -88.6876   29.3841    0.4030 H   0  0  0  0  0  0  0  0  0  0  0  0
  -87.7475   27.6121    0.6291 C   0  0  0  0  0  0  0  0  0  0  0  0
  -87.3252   26.7921    1.8024 C   0  0  0  0  0  0  0  0  0  0  0  0
  -88.1545   26.1876    2.5271 O   0  0  0  0  0  0  0  0  0  0  0  0
  -85.9884   26.6573    2.1507 O   0  0  0  0  0  0  0  0  0  0  0  0
  -85.3261   27.4194    2.1522 H   0  0  0  0  0  0  0  0  0  0  0  0
  -86.5768   28.3370    0.0153 C   0  0  0  0  0  0  0  0  0  0  0  0
  -86.6273   29.8228    0.2829 C   0  0  0  0  0  0  0  0  0  0  0  0
  -85.2747   30.3875    0.5148 C   0  0  0  0  0  0  0  0  0  0  0  0
  -84.2835   29.6701    1.1729 C   0  0  0  0  0  0  0  0  0  0  0  0
  -83.0199   30.1660    1.4064 C   0  0  0  0  0  0  0  0  0  0  0  0
  -82.6992   31.4379    0.9737 C   0  0  0  0  0  0  0  0  0  0  0  0
  -83.6707   32.1839    0.3102 C   0  0  0  0  0  0  0  0  0  0  0  0
  -84.9227   31.6568    0.0942 C   0  0  0  0  0  0  0  0  0  0  0  0
  1  2  1  0  0  0
  2 19  1  0  0  0
 19 21  1  0  0  0
 21 26  1  0  0  0
 26 27  1  0  0  0
 27 28  1  0  0  0
 28 29  2  0  0  0
 29 30  1  0  0  0
 30 31  2  0  0  0
 31 32  1  0  0  0
 32 33  2  0  0  0
 21 22  1  0  0  0
 22 23  2  0  0  0
 22 24  1  0  0  0
  2  3  1  0  0  0
  3  4  2  0  0  0
  3  5  1  0  0  0
  5  6  1  0  0  0
  6  7  1  0  0  0
  7  8  2  0  0  0
  8  9  1  0  0  0
  9 10  2  0  0  0
 10 11  1  0  0  0
 11 12  2  0  0  0
 12 13  1  0  0  0
 13 14  1  0  0  0
 14 15  1  0  0  0
 15 16  2  0  0  0
 15 17  1  0  0  0
 33 28  1  0  0  0
 14  5  1  0  0  0
 12  7  1  0  0  0
 19 20  1  0  0  0
 24 25  1  0  0  0
 17 18  1  0  0  0
M  END
> <minimizedAffinity>
-7.88053

> <CNNscore>
0.1278060377

> <CNNaffinity>
5.0695457458

> <CNN_VS>
0.6479185820

> <CNNaffinity_variance>
0.5454809666

$$$$
[H]OC(=O)[C@@]1([H])N(C(=O)[C@@]([H])(N([H])[C@]([H])(C(=O)O[H])C([H])([H])C([H])([H])c2c([H])c([H])c([H])c([H])c2[H])C([H])([H])[H])C([H])([H])c2c([H])c([H])c([H])c([H])c2C1([H])[H]


 33 35  0  0  0  0  0  0  0  0999 V2000
  -87.3492   29.3458    0.2016 C   0  0  0  0  0  0  0  0  0  0  0  0
  -88.6606   29.6554   -0.5377 C   0  0  0  0  0  0  0  0  0  0  0  0
  -89.7445   29.1456    0.3068 C   0  0  0  0  0  0  0  0  0  0  0  0
  -90.5334   30.0237    0.8024 O   0  0  0  0  0  0  0  0  0  0  0  0
  -90.0091   27.7977    0.6297 N   0  0  0  0  0  0  0  0  0  0  0  0
  -91.1417   27.5239    1.5446 C   0  0  0  0  0  0  0  0  0  0  0  0
  -90.5548   26.8156    2.7420 C   0  0  0  0  0  0  0  0  0  0  0  0
  -90.8132   27.1716    4.0383 C   0  0  0  0  0  0  0  0  0  0  0  0
  -90.1909   26.4705    5.0839 C   0  0  0  0  0  0  0  0  0  0  0  0
  -89.3345   25.4396    4.7611 C   0  0  0  0  0  0  0  0  0  0  0  0
  -89.0912   25.0992    3.4240 C   0  0  0  0  0  0  0  0  0  0  0  0
  -89.6970   25.7802    2.3927 C   0  0  0  0  0  0  0  0  0  0  0  0
  -89.5147   25.4498    0.9805 C   0  0  0  0  0  0  0  0  0  0  0  0
  -89.2776   26.6636    0.1403 C   0  0  0  0  0  0  0  0  0  0  0  0
  -89.5904   26.3913   -1.2929 C   0  0  0  0  0  0  0  0  0  0  0  0
  -90.5818   25.7022   -1.5816 O   0  0  0  0  0  0  0  0  0  0  0  0
  -88.7806   26.9057   -2.2637 O   0  0  0  0  0  0  0  0  0  0  0  0
  -88.7434   27.9195   -2.3555 H   0  0  0  0  0  0  0  0  0  0  0  0
  -88.6820   31.1102   -0.6436 N   0  0  0  0  0  0  0  0  0  0  0  0
  -89.6655   31.4027   -0.4122 H   0  0  0  0  0  0  0  0  0  0  0  0
  -88.4478   31.4788   -2.0206 C   0  0  0  0  0  0  0  0  0  0  0  0
  -88.6270   30.3112   -2.9328 C   0  0  0  0  0  0  0  0  0  0  0  0
  -89.7601   29.9443   -3.3322 O   0  0  0  0  0  0  0  0  0  0  0  0
  -87.5438   29.5712   -3.3862 O   0  0  0  0  0  0  0  0  0  0  0  0
  -86.7683   29.2911   -2.8036 H   0  0  0  0  0  0  0  0  0  0  0  0
  -87.0990   32.1241   -2.2123 C   0  0  0  0  0  0  0  0  0  0  0  0
  -86.7455   33.0475   -1.0704 C   0  0  0  0  0  0  0  0  0  0  0  0
  -85.4475   32.6844   -0.4494 C   0  0  0  0  0  0  0  0  0  0  0  0
  -85.3751   31.8808    0.6816 C   0  0  0  0  0  0  0  0  0  0  0  0
  -84.1875   31.5280    1.2835 C   0  0  0  0  0  0  0  0  0  0  0  0
  -82.9962   31.9841    0.7539 C   0  0  0  0  0  0  0  0  0  0  0  0
  -83.0340   32.7921   -0.3802 C   0  0  0  0  0  0  0  0  0  0  0  0
  -84.2384   33.1247   -0.9554 C   0  0  0  0  0  0  0  0  0  0  0  0
  1  2  1  0  0  0
  2 19  1  0  0  0
 19 21  1  0  0  0
 21 26  1  0  0  0
 26 27  1  0  0  0
 27 28  1  0  0  0
 28 29  2  0  0  0
 29 30  1  0  0  0
 30 31  2  0  0  0
 31 32  1  0  0  0
 32 33  2  0  0  0
 21 22  1  0  0  0
 22 23  2  0  0  0
 22 24  1  0  0  0
  2  3  1  0  0  0
  3  4  2  0  0  0
  3  5  1  0  0  0
  5  6  1  0  0  0
  6  7  1  0  0  0
  7  8  2  0  0  0
  8  9  1  0  0  0
  9 10  2  0  0  0
 10 11  1  0  0  0
 11 12  2  0  0  0
 12 13  1  0  0  0
 13 14  1  0  0  0
 14 15  1  0  0  0
 15 16  2  0  0  0
 15 17  1  0  0  0
 33 28  1  0  0  0
 14  5  1  0  0  0
 12  7  1  0  0  0
 19 20  1  0  0  0
 24 25  1  0  0  0
 17 18  1  0  0  0
M  END
> <minimizedAffinity>
-8.12938

> <CNNscore>
0.1019268259

> <CNNaffinity>
5.2563591003

> <CNN_VS>
0.5357639790

> <CNNaffinity_variance>
0.3843705058

$$$$
[H]OC(=O)[C@@]1([H])N(c2nc(C#N)nc([H])c2[H])C([H])([H])[C@@]([H])(S(=O)(=O)c2c([H])c([H])c([H])c([H])c2C(F)(F)F)C1([H])[H]


 30 32  0  0  0  0  0  0  0  0999 V2000
  -86.5537   28.3901    0.1875 N   0  0  0  0  0  0  0  0  0  0  0  0
  -87.5699   27.7258    0.9752 C   0  0  0  0  0  0  0  0  0  0  0  0
  -87.8957   26.5311    0.0369 C   0  0  0  0  0  0  0  0  0  0  0  0
  -88.0506   27.2414   -1.2429 C   0  0  0  0  0  0  0  0  0  0  0  0
  -86.9964   28.3628   -1.1681 C   0  0  0  0  0  0  0  0  0  0  0  0
  -83.6968   30.6166    0.7238 C   0  0  0  0  0  0  0  0  0  0  0  0
  -83.0491   30.0176    1.7388 N   0  0  0  0  0  0  0  0  0  0  0  0
  -83.5098   28.8671    2.2927 C   0  0  0  0  0  0  0  0  0  0  0  0
  -84.6726   28.3549    1.7555 C   0  0  0  0  0  0  0  0  0  0  0  0
  -85.3584   28.9466    0.7155 C   0  0  0  0  0  0  0  0  0  0  0  0
  -84.8291   30.0888    0.2242 N   0  0  0  0  0  0  0  0  0  0  0  0
  -82.7205   32.8178   -0.2755 N   0  0  0  0  0  0  0  0  0  0  0  0
  -83.1606   31.8307    0.1802 C   0  0  0  0  0  0  0  0  0  0  0  0
  -87.5614   29.6366   -1.6368 C   0  0  0  0  0  0  0  0  0  0  0  0
  -87.8790   29.7718   -2.8353 O   0  0  0  0  0  0  0  0  0  0  0  0
  -87.7450   30.6867   -0.7646 O   0  0  0  0  0  0  0  0  0  0  0  0
  -87.3777   31.6218   -0.9209 H   0  0  0  0  0  0  0  0  0  0  0  0
  -89.4175   25.7657    0.6463 S   0  0  0  0  0  0  0  0  0  0  0  0
  -90.4876   26.2935   -0.2634 O   0  0  0  0  0  0  0  0  0  0  0  0
  -89.1867   24.3094    0.4389 O   0  0  0  0  0  0  0  0  0  0  0  0
  -89.7197   26.2407    2.2840 C   0  0  0  0  0  0  0  0  0  0  0  0
  -89.2601   25.4201    3.2758 C   0  0  0  0  0  0  0  0  0  0  0  0
  -89.4595   25.7716    4.5931 C   0  0  0  0  0  0  0  0  0  0  0  0
  -90.1099   26.9295    4.9350 C   0  0  0  0  0  0  0  0  0  0  0  0
  -90.5551   27.7259    3.9105 C   0  0  0  0  0  0  0  0  0  0  0  0
  -90.3795   27.4159    2.5536 C   0  0  0  0  0  0  0  0  0  0  0  0
  -90.8973   28.3368    1.5419 C   0  0  0  0  0  0  0  0  0  0  0  0
  -91.8689   27.8302    0.7097 F   0  0  0  0  0  0  0  0  0  0  0  0
  -89.9198   29.0226    0.8495 F   0  0  0  0  0  0  0  0  0  0  0  0
  -91.5725   29.3660    2.2209 F   0  0  0  0  0  0  0  0  0  0  0  0
 12 13  3  0  0  0
 13  6  1  0  0  0
  6  7  2  0  0  0
  7  8  1  0  0  0
  8  9  2  0  0  0
  9 10  1  0  0  0
 10  1  1  0  0  0
  1  2  1  0  0  0
  2  3  1  0  0  0
  3 18  1  0  0  0
 18 19  2  0  0  0
 18 20  2  0  0  0
 18 21  1  0  0  0
 21 22  2  0  0  0
 22 23  1  0  0  0
 23 24  2  0  0  0
 24 25  1  0  0  0
 25 26  2  0  0  0
 26 27  1  0  0  0
 27 28  1  0  0  0
 27 29  1  0  0  0
 27 30  1  0  0  0
  3  4  1  0  0  0
  4  5  1  0  0  0
  5 14  1  0  0  0
 14 15  2  0  0  0
 14 16  1  0  0  0
 10 11  2  0  0  0
 11  6  1  0  0  0
  5  1  1  0  0  0
 26 21  1  0  0  0
 16 17  1  0  0  0
M  END
> <minimizedAffinity>
-8.05849

> <CNNscore>
0.4547103941

> <CNNaffinity>
6.2458791733

> <CNN_VS>
2.8400661945

> <CNNaffinity_variance>
0.0758702755

$$$$
[H]OC(=O)[C@@]1([H])N(c2nc(C#N)nc([H])c2[H])C([H])([H])[C@@]([H])(S(=O)(=O)c2c([H])c([H])c([H])c([H])c2C(F)(F)F)C1([H])[H]


 30 32  0  0  0  0  0  0  0  0999 V2000
  -87.1923   28.9844   -0.1179 N   0  0  0  0  0  0  0  0  0  0  0  0
  -88.4137   28.8984    0.6535 C   0  0  0  0  0  0  0  0  0  0  0  0
  -88.8582   27.4550    0.2887 C   0  0  0  0  0  0  0  0  0  0  0  0
  -88.7025   27.4979   -1.1743 C   0  0  0  0  0  0  0  0  0  0  0  0
  -87.4580   28.3822   -1.3833 C   0  0  0  0  0  0  0  0  0  0  0  0
  -84.3904   31.3034    0.3048 C   0  0  0  0  0  0  0  0  0  0  0  0
  -83.6485   30.6929    1.2457 N   0  0  0  0  0  0  0  0  0  0  0  0
  -84.0238   29.5044    1.7834 C   0  0  0  0  0  0  0  0  0  0  0  0
  -85.2023   28.9661    1.3096 C   0  0  0  0  0  0  0  0  0  0  0  0
  -85.9837   29.5686    0.3461 C   0  0  0  0  0  0  0  0  0  0  0  0
  -85.5352   30.7493   -0.1343 N   0  0  0  0  0  0  0  0  0  0  0  0
  -83.5809   33.5903   -0.6501 N   0  0  0  0  0  0  0  0  0  0  0  0
  -83.9414   32.5581   -0.2254 C   0  0  0  0  0  0  0  0  0  0  0  0
  -87.6859   29.3487   -2.4676 C   0  0  0  0  0  0  0  0  0  0  0  0
  -87.8788   28.9429   -3.6311 O   0  0  0  0  0  0  0  0  0  0  0  0
  -87.6889   30.7023   -2.2128 O   0  0  0  0  0  0  0  0  0  0  0  0
  -87.1097   31.3724   -2.7120 H   0  0  0  0  0  0  0  0  0  0  0  0
  -90.5690   27.2605    0.8444 S   0  0  0  0  0  0  0  0  0  0  0  0
  -90.8734   28.5427    1.5617 O   0  0  0  0  0  0  0  0  0  0  0  0
  -91.3398   27.1420   -0.4239 O   0  0  0  0  0  0  0  0  0  0  0  0
  -90.7053   25.9114    1.9216 C   0  0  0  0  0  0  0  0  0  0  0  0
  -91.1013   24.7157    1.3909 C   0  0  0  0  0  0  0  0  0  0  0  0
  -91.2014   23.6111    2.2086 C   0  0  0  0  0  0  0  0  0  0  0  0
  -90.9117   23.6822    3.5471 C   0  0  0  0  0  0  0  0  0  0  0  0
  -90.5173   24.9000    4.0407 C   0  0  0  0  0  0  0  0  0  0  0  0
  -90.3992   26.0553    3.2538 C   0  0  0  0  0  0  0  0  0  0  0  0
  -89.9718   27.3039    3.8848 C   0  0  0  0  0  0  0  0  0  0  0  0
  -90.9163   28.3029    3.9400 F   0  0  0  0  0  0  0  0  0  0  0  0
  -88.7457   27.7654    3.4501 F   0  0  0  0  0  0  0  0  0  0  0  0
  -89.7318   27.0249    5.2415 F   0  0  0  0  0  0  0  0  0  0  0  0
 12 13  3  0  0  0
 13  6  1  0  0  0
  6  7  2  0  0  0
  7  8  1  0  0  0
  8  9  2  0  0  0
  9 10  1  0  0  0
 10  1  1  0  0  0
  1  2  1  0  0  0
  2  3  1  0  0  0
  3 18  1  0  0  0
 18 19  2  0  0  0
 18 20  2  0  0  0
 18 21  1  0  0  0
 21 22  2  0  0  0
 22 23  1  0  0  0
 23 24  2  0  0  0
 24 25  1  0  0  0
 25 26  2  0  0  0
 26 27  1  0  0  0
 27 28  1  0  0  0
 27 29  1  0  0  0
 27 30  1  0  0  0
  3  4  1  0  0  0
  4  5  1  0  0  0
  5 14  1  0  0  0
 14 15  2  0  0  0
 14 16  1  0  0  0
 10 11  2  0  0  0
 11  6  1  0  0  0
  5  1  1  0  0  0
 26 21  1  0  0  0
 16 17  1  0  0  0
M  END
> <minimizedAffinity>
-8.29029

> <CNNscore>
0.3807750642

> <CNNaffinity>
6.1864409447

> <CNN_VS>
2.3556425571

> <CNNaffinity_variance>
0.0902339220

$$$$
[H]OC(=O)[C@@]1([H])N(c2nc(C#N)nc([H])c2[H])C([H])([H])[C@@]([H])(S(=O)(=O)c2c([H])c([H])c([H])c([H])c2C(F)(F)F)C1([H])[H]


 30 32  0  0  0  0  0  0  0  0999 V2000
  -87.6176   30.6451   -1.1784 N   0  0  0  0  0  0  0  0  0  0  0  0
  -88.5950   30.0140   -0.3177 C   0  0  0  0  0  0  0  0  0  0  0  0
  -88.8781   28.7244   -1.1369 C   0  0  0  0  0  0  0  0  0  0  0  0
  -89.0780   29.3056   -2.4743 C   0  0  0  0  0  0  0  0  0  0  0  0
  -88.0734   30.4731   -2.5189 C   0  0  0  0  0  0  0  0  0  0  0  0
  -84.3678   31.2564    0.3937 C   0  0  0  0  0  0  0  0  0  0  0  0
  -84.1736   32.5660    0.1579 N   0  0  0  0  0  0  0  0  0  0  0  0
  -85.0866   33.3070   -0.5202 C   0  0  0  0  0  0  0  0  0  0  0  0
  -86.2157   32.6401   -0.9487 C   0  0  0  0  0  0  0  0  0  0  0  0
  -86.4422   31.2988   -0.7219 C   0  0  0  0  0  0  0  0  0  0  0  0
  -85.4815   30.6379   -0.0391 N   0  0  0  0  0  0  0  0  0  0  0  0
  -82.5559   29.9274    1.7158 N   0  0  0  0  0  0  0  0  0  0  0  0
  -83.3664   30.5266    1.1160 C   0  0  0  0  0  0  0  0  0  0  0  0
  -88.6988   31.6726   -3.0947 C   0  0  0  0  0  0  0  0  0  0  0  0
  -89.7350   32.1401   -2.5816 O   0  0  0  0  0  0  0  0  0  0  0  0
  -88.1519   32.2888   -4.1985 O   0  0  0  0  0  0  0  0  0  0  0  0
  -88.6720   32.4908   -5.0485 H   0  0  0  0  0  0  0  0  0  0  0  0
  -90.3582   27.9545   -0.4369 S   0  0  0  0  0  0  0  0  0  0  0  0
  -91.4878   28.8142   -0.9226 O   0  0  0  0  0  0  0  0  0  0  0  0
  -90.3833   26.6047   -1.0647 O   0  0  0  0  0  0  0  0  0  0  0  0
  -90.2843   27.9642    1.2933 C   0  0  0  0  0  0  0  0  0  0  0  0
  -91.2119   28.7131    1.9620 C   0  0  0  0  0  0  0  0  0  0  0  0
  -91.2029   28.7312    3.3397 C   0  0  0  0  0  0  0  0  0  0  0  0
  -90.2827   28.0130    4.0596 C   0  0  0  0  0  0  0  0  0  0  0  0
  -89.3693   27.2740    3.3513 C   0  0  0  0  0  0  0  0  0  0  0  0
  -89.3333   27.2202    1.9500 C   0  0  0  0  0  0  0  0  0  0  0  0
  -88.3132   26.4003    1.2966 C   0  0  0  0  0  0  0  0  0  0  0  0
  -87.4687   27.0645    0.4370 F   0  0  0  0  0  0  0  0  0  0  0  0
  -88.7948   25.2257    0.7547 F   0  0  0  0  0  0  0  0  0  0  0  0
  -87.4413   25.9415    2.2993 F   0  0  0  0  0  0  0  0  0  0  0  0
 12 13  3  0  0  0
 13  6  1  0  0  0
  6  7  2  0  0  0
  7  8  1  0  0  0
  8  9  2  0  0  0
  9 10  1  0  0  0
 10  1  1  0  0  0
  1  2  1  0  0  0
  2  3  1  0  0  0
  3 18  1  0  0  0
 18 19  2  0  0  0
 18 20  2  0  0  0
 18 21  1  0  0  0
 21 22  2  0  0  0
 22 23  1  0  0  0
 23 24  2  0  0  0
 24 25  1  0  0  0
 25 26  2  0  0  0
 26 27  1  0  0  0
 27 28  1  0  0  0
 27 29  1  0  0  0
 27 30  1  0  0  0
  3  4  1  0  0  0
  4  5  1  0  0  0
  5 14  1  0  0  0
 14 15  2  0  0  0
 14 16  1  0  0  0
 10 11  2  0  0  0
 11  6  1  0  0  0
  5  1  1  0  0  0
 26 21  1  0  0  0
 16 17  1  0  0  0
M  END
> <minimizedAffinity>
-7.64263

> <CNNscore>
0.2101730555

> <CNNaffinity>
6.1090660095

> <CNN_VS>
1.2839610577

> <CNNaffinity_variance>
0.2484981120

$$$$
[H]OC(=O)[C@@]1([H])N(c2nc(C#N)nc([H])c2[H])C([H])([H])[C@@]([H])(S(=O)(=O)c2c([H])c([H])c([H])c([H])c2C(F)(F)F)C1([H])[H]


 30 32  0  0  0  0  0  0  0  0999 V2000
  -89.9281   27.7602    1.0966 N   0  0  0  0  0  0  0  0  0  0  0  0
  -88.5941   27.8458    0.5421 C   0  0  0  0  0  0  0  0  0  0  0  0
  -88.5838   29.3357    0.1014 C   0  0  0  0  0  0  0  0  0  0  0  0
  -89.8733   29.4060   -0.6049 C   0  0  0  0  0  0  0  0  0  0  0  0
  -90.7900   28.4782    0.2156 C   0  0  0  0  0  0  0  0  0  0  0  0
  -90.7767   25.0933    3.4575 C   0  0  0  0  0  0  0  0  0  0  0  0
  -90.9052   25.7627    4.6168 N   0  0  0  0  0  0  0  0  0  0  0  0
  -90.7227   27.1061    4.6834 C   0  0  0  0  0  0  0  0  0  0  0  0
  -90.4001   27.7368    3.4997 C   0  0  0  0  0  0  0  0  0  0  0  0
  -90.2615   27.0773    2.2965 C   0  0  0  0  0  0  0  0  0  0  0  0
  -90.4609   25.7410    2.3213 N   0  0  0  0  0  0  0  0  0  0  0  0
  -91.1510   22.5134    3.4325 N   0  0  0  0  0  0  0  0  0  0  0  0
  -90.9821   23.6739    3.4507 C   0  0  0  0  0  0  0  0  0  0  0  0
  -91.5849   27.6180   -0.6732 C   0  0  0  0  0  0  0  0  0  0  0  0
  -91.5715   27.8159   -1.9045 O   0  0  0  0  0  0  0  0  0  0  0  0
  -92.3474   26.5921   -0.1601 O   0  0  0  0  0  0  0  0  0  0  0  0
  -93.3396   26.4761   -0.3497 H   0  0  0  0  0  0  0  0  0  0  0  0
  -87.1425   29.5727   -0.9662 S   0  0  0  0  0  0  0  0  0  0  0  0
  -86.8026   28.1908   -1.4417 O   0  0  0  0  0  0  0  0  0  0  0  0
  -87.6600   30.4245   -2.0724 O   0  0  0  0  0  0  0  0  0  0  0  0
  -85.8271   30.2490   -0.0653 C   0  0  0  0  0  0  0  0  0  0  0  0
  -84.9706   29.3808    0.5518 C   0  0  0  0  0  0  0  0  0  0  0  0
  -83.8977   29.8760    1.2605 C   0  0  0  0  0  0  0  0  0  0  0  0
  -83.6669   31.2240    1.3620 C   0  0  0  0  0  0  0  0  0  0  0  0
  -84.5491   32.0618    0.7279 C   0  0  0  0  0  0  0  0  0  0  0  0
  -85.6568   31.6116   -0.0057 C   0  0  0  0  0  0  0  0  0  0  0  0
  -86.5353   32.5939   -0.6405 C   0  0  0  0  0  0  0  0  0  0  0  0
  -87.8649   32.5236   -0.2931 F   0  0  0  0  0  0  0  0  0  0  0  0
  -86.3555   32.7147   -2.0037 F   0  0  0  0  0  0  0  0  0  0  0  0
  -86.1548   33.8616   -0.1667 F   0  0  0  0  0  0  0  0  0  0  0  0
 12 13  3  0  0  0
 13  6  1  0  0  0
  6  7  2  0  0  0
  7  8  1  0  0  0
  8  9  2  0  0  0
  9 10  1  0  0  0
 10  1  1  0  0  0
  1  2  1  0  0  0
  2  3  1  0  0  0
  3 18  1  0  0  0
 18 19  2  0  0  0
 18 20  2  0  0  0
 18 21  1  0  0  0
 21 22  2  0  0  0
 22 23  1  0  0  0
 23 24  2  0  0  0
 24 25  1  0  0  0
 25 26  2  0  0  0
 26 27  1  0  0  0
 27 28  1  0  0  0
 27 29  1  0  0  0
 27 30  1  0  0  0
  3  4  1  0  0  0
  4  5  1  0  0  0
  5 14  1  0  0  0
 14 15  2  0  0  0
 14 16  1  0  0  0
 10 11  2  0  0  0
 11  6  1  0  0  0
  5  1  1  0  0  0
 26 21  1  0  0  0
 16 17  1  0  0  0
M  END
> <minimizedAffinity>
-8.87290

> <CNNscore>
0.1696469635

> <CNNaffinity>
5.6753797531

> <CNN_VS>
0.9628109336

> <CNNaffinity_variance>
0.0997484252

$$$$
[H]OC(=O)[C@@]1([H])N(c2nc(C#N)nc([H])c2[H])C([H])([H])[C@@]([H])(S(=O)(=O)c2c([H])c([H])c([H])c([H])c2C(F)(F)F)C1([H])[H]


 30 32  0  0  0  0  0  0  0  0999 V2000
  -86.4152   30.7593   -0.5897 N   0  0  0  0  0  0  0  0  0  0  0  0
  -87.6559   30.0819   -0.2796 C   0  0  0  0  0  0  0  0  0  0  0  0
  -88.0840   29.6430   -1.7073 C   0  0  0  0  0  0  0  0  0  0  0  0
  -87.8903   30.9072   -2.4360 C   0  0  0  0  0  0  0  0  0  0  0  0
  -86.6450   31.5248   -1.7710 C   0  0  0  0  0  0  0  0  0  0  0  0
  -83.8147   29.4366    1.6226 C   0  0  0  0  0  0  0  0  0  0  0  0
  -82.9154   30.4363    1.6428 N   0  0  0  0  0  0  0  0  0  0  0  0
  -83.1128   31.5813    0.9410 C   0  0  0  0  0  0  0  0  0  0  0  0
  -84.2818   31.6557    0.2123 C   0  0  0  0  0  0  0  0  0  0  0  0
  -85.2219   30.6475    0.1724 C   0  0  0  0  0  0  0  0  0  0  0  0
  -84.9449   29.5433    0.9005 N   0  0  0  0  0  0  0  0  0  0  0  0
  -83.3220   27.2863    3.0119 N   0  0  0  0  0  0  0  0  0  0  0  0
  -83.5498   28.2511    2.3851 C   0  0  0  0  0  0  0  0  0  0  0  0
  -86.8491   32.9593   -1.5218 C   0  0  0  0  0  0  0  0  0  0  0  0
  -87.8590   33.3443   -0.8994 O   0  0  0  0  0  0  0  0  0  0  0  0
  -85.9344   33.8870   -1.9692 O   0  0  0  0  0  0  0  0  0  0  0  0
  -86.1784   34.6890   -2.5445 H   0  0  0  0  0  0  0  0  0  0  0  0
  -89.8077   29.1018   -1.6114 S   0  0  0  0  0  0  0  0  0  0  0  0
  -90.6018   30.3647   -1.7717 O   0  0  0  0  0  0  0  0  0  0  0  0
  -89.9601   28.2018   -2.7876 O   0  0  0  0  0  0  0  0  0  0  0  0
  -90.1275   28.3708   -0.0743 C   0  0  0  0  0  0  0  0  0  0  0  0
  -90.8590   29.0905    0.8285 C   0  0  0  0  0  0  0  0  0  0  0  0
  -91.1554   28.5376    2.0553 C   0  0  0  0  0  0  0  0  0  0  0  0
  -90.7332   27.2775    2.3939 C   0  0  0  0  0  0  0  0  0  0  0  0
  -90.0022   26.5878    1.4600 C   0  0  0  0  0  0  0  0  0  0  0  0
  -89.6721   27.1028    0.1976 C   0  0  0  0  0  0  0  0  0  0  0  0
  -88.8849   26.2808   -0.7213 C   0  0  0  0  0  0  0  0  0  0  0  0
  -87.6822   26.8141   -1.1242 F   0  0  0  0  0  0  0  0  0  0  0  0
  -89.6082   25.7628   -1.7766 F   0  0  0  0  0  0  0  0  0  0  0  0
  -88.4957   25.1266   -0.0194 F   0  0  0  0  0  0  0  0  0  0  0  0
 12 13  3  0  0  0
 13  6  1  0  0  0
  6  7  2  0  0  0
  7  8  1  0  0  0
  8  9  2  0  0  0
  9 10  1  0  0  0
 10  1  1  0  0  0
  1  2  1  0  0  0
  2  3  1  0  0  0
  3 18  1  0  0  0
 18 19  2  0  0  0
 18 20  2  0  0  0
 18 21  1  0  0  0
 21 22  2  0  0  0
 22 23  1  0  0  0
 23 24  2  0  0  0
 24 25  1  0  0  0
 25 26  2  0  0  0
 26 27  1  0  0  0
 27 28  1  0  0  0
 27 29  1  0  0  0
 27 30  1  0  0  0
  3  4  1  0  0  0
  4  5  1  0  0  0
  5 14  1  0  0  0
 14 15  2  0  0  0
 14 16  1  0  0  0
 10 11  2  0  0  0
 11  6  1  0  0  0
  5  1  1  0  0  0
 26 21  1  0  0  0
 16 17  1  0  0  0
M  END
> <minimizedAffinity>
-7.78202

> <CNNscore>
0.1563604027

> <CNNaffinity>
6.1365804672

> <CNN_VS>
0.9595181942

> <CNNaffinity_variance>
0.0985237956

$$$$
[H]OC(=O)[C@@]1([H])N(c2nc(C#N)nc([H])c2[H])C([H])([H])[C@@]([H])(S(=O)(=O)c2c([H])c([H])c([H])c([H])c2C(F)(F)F)C1([H])[H]


 30 32  0  0  0  0  0  0  0  0999 V2000
  -86.8617   28.2715    0.4948 N   0  0  0  0  0  0  0  0  0  0  0  0
  -87.1418   28.2286   -0.9244 C   0  0  0  0  0  0  0  0  0  0  0  0
  -88.5333   28.9194   -0.9424 C   0  0  0  0  0  0  0  0  0  0  0  0
  -89.2017   28.1844    0.1436 C   0  0  0  0  0  0  0  0  0  0  0  0
  -88.0756   27.9412    1.1669 C   0  0  0  0  0  0  0  0  0  0  0  0
  -83.6793   29.9520    1.1687 C   0  0  0  0  0  0  0  0  0  0  0  0
  -83.1564   29.1986    2.1523 N   0  0  0  0  0  0  0  0  0  0  0  0
  -83.8119   28.1143    2.6392 C   0  0  0  0  0  0  0  0  0  0  0  0
  -85.0364   27.8352    2.0683 C   0  0  0  0  0  0  0  0  0  0  0  0
  -85.5976   28.5891    1.0591 C   0  0  0  0  0  0  0  0  0  0  0  0
  -84.8768   29.6504    0.6347 N   0  0  0  0  0  0  0  0  0  0  0  0
  -82.3431   32.0166    0.3031 N   0  0  0  0  0  0  0  0  0  0  0  0
  -82.9386   31.0856    0.6961 C   0  0  0  0  0  0  0  0  0  0  0  0
  -88.1224   26.5604    1.6697 C   0  0  0  0  0  0  0  0  0  0  0  0
  -88.4225   26.3427    2.8606 O   0  0  0  0  0  0  0  0  0  0  0  0
  -87.8376   25.5001    0.8380 O   0  0  0  0  0  0  0  0  0  0  0  0
  -87.1433   24.7877    1.0483 H   0  0  0  0  0  0  0  0  0  0  0  0
  -89.2542   28.6385   -2.5779 S   0  0  0  0  0  0  0  0  0  0  0  0
  -88.0710   28.3902   -3.4664 O   0  0  0  0  0  0  0  0  0  0  0  0
  -90.0738   27.4091   -2.3949 O   0  0  0  0  0  0  0  0  0  0  0  0
  -90.1280   30.0387   -3.1024 C   0  0  0  0  0  0  0  0  0  0  0  0
  -91.4914   30.0044   -3.0112 C   0  0  0  0  0  0  0  0  0  0  0  0
  -92.2244   31.1055   -3.3969 C   0  0  0  0  0  0  0  0  0  0  0  0
  -91.6172   32.2400   -3.8713 C   0  0  0  0  0  0  0  0  0  0  0  0
  -90.2473   32.2346   -3.9467 C   0  0  0  0  0  0  0  0  0  0  0  0
  -89.4532   31.1418   -3.5683 C   0  0  0  0  0  0  0  0  0  0  0  0
  -87.9993   31.2435   -3.6924 C   0  0  0  0  0  0  0  0  0  0  0  0
  -87.4222   30.4516   -4.6584 F   0  0  0  0  0  0  0  0  0  0  0  0
  -87.3241   31.1795   -2.4902 F   0  0  0  0  0  0  0  0  0  0  0  0
  -87.7087   32.5442   -4.1394 F   0  0  0  0  0  0  0  0  0  0  0  0
 12 13  3  0  0  0
 13  6  1  0  0  0
  6  7  2  0  0  0
  7  8  1  0  0  0
  8  9  2  0  0  0
  9 10  1  0  0  0
 10  1  1  0  0  0
  1  2  1  0  0  0
  2  3  1  0  0  0
  3 18  1  0  0  0
 18 19  2  0  0  0
 18 20  2  0  0  0
 18 21  1  0  0  0
 21 22  2  0  0  0
 22 23  1  0  0  0
 23 24  2  0  0  0
 24 25  1  0  0  0
 25 26  2  0  0  0
 26 27  1  0  0  0
 27 28  1  0  0  0
 27 29  1  0  0  0
 27 30  1  0  0  0
  3  4  1  0  0  0
  4  5  1  0  0  0
  5 14  1  0  0  0
 14 15  2  0  0  0
 14 16  1  0  0  0
 10 11  2  0  0  0
 11  6  1  0  0  0
  5  1  1  0  0  0
 26 21  1  0  0  0
 16 17  1  0  0  0
M  END
> <minimizedAffinity>
-7.93877

> <CNNscore>
0.1553660184

> <CNNaffinity>
5.9878396988

> <CNN_VS>
0.9303067923

> <CNNaffinity_variance>
0.2229601890

$$$$
[H]OC(=O)[C@@]1([H])N(c2nc(C#N)nc([H])c2[H])C([H])([H])[C@@]([H])(S(=O)(=O)c2c([H])c([H])c([H])c([H])c2C(F)(F)F)C1([H])[H]


 30 32  0  0  0  0  0  0  0  0999 V2000
  -87.1750   29.5316    0.0167 N   0  0  0  0  0  0  0  0  0  0  0  0
  -87.3377   29.4967   -1.4209 C   0  0  0  0  0  0  0  0  0  0  0  0
  -88.7274   30.1796   -1.5485 C   0  0  0  0  0  0  0  0  0  0  0  0
  -89.4778   29.4333   -0.5256 C   0  0  0  0  0  0  0  0  0  0  0  0
  -88.4378   29.1897    0.5850 C   0  0  0  0  0  0  0  0  0  0  0  0
  -84.0182   29.1993    1.8416 C   0  0  0  0  0  0  0  0  0  0  0  0
  -83.6240   30.4782    1.9738 N   0  0  0  0  0  0  0  0  0  0  0  0
  -84.3635   31.5026    1.4777 C   0  0  0  0  0  0  0  0  0  0  0  0
  -85.5337   31.1545    0.8354 C   0  0  0  0  0  0  0  0  0  0  0  0
  -85.9634   29.8527    0.6846 C   0  0  0  0  0  0  0  0  0  0  0  0
  -85.1661   28.8959    1.2088 N   0  0  0  0  0  0  0  0  0  0  0  0
  -82.5163   27.3070    2.8218 N   0  0  0  0  0  0  0  0  0  0  0  0
  -83.1937   28.1603    2.3873 C   0  0  0  0  0  0  0  0  0  0  0  0
  -88.5167   27.8053    1.0736 C   0  0  0  0  0  0  0  0  0  0  0  0
  -89.2576   26.9842    0.4970 O   0  0  0  0  0  0  0  0  0  0  0  0
  -87.7792   27.4026    2.1650 O   0  0  0  0  0  0  0  0  0  0  0  0
  -88.1806   26.9505    2.9825 H   0  0  0  0  0  0  0  0  0  0  0  0
  -89.3102   29.9056   -3.2393 S   0  0  0  0  0  0  0  0  0  0  0  0
  -88.0688   29.5583   -4.0072 O   0  0  0  0  0  0  0  0  0  0  0  0
  -90.2243   28.7373   -3.1116 O   0  0  0  0  0  0  0  0  0  0  0  0
  -90.0350   31.3464   -3.8702 C   0  0  0  0  0  0  0  0  0  0  0  0
  -91.3943   31.3604   -4.0128 C   0  0  0  0  0  0  0  0  0  0  0  0
  -92.0140   32.4947   -4.4903 C   0  0  0  0  0  0  0  0  0  0  0  0
  -91.2976   33.6146   -4.8268 C   0  0  0  0  0  0  0  0  0  0  0  0
  -89.9360   33.5603   -4.6685 C   0  0  0  0  0  0  0  0  0  0  0  0
  -89.2546   32.4324   -4.1875 C   0  0  0  0  0  0  0  0  0  0  0  0
  -87.7983   32.4829   -4.0603 C   0  0  0  0  0  0  0  0  0  0  0  0
  -87.0958   31.5965   -4.8440 F   0  0  0  0  0  0  0  0  0  0  0  0
  -87.3456   32.5022   -2.7565 F   0  0  0  0  0  0  0  0  0  0  0  0
  -87.3798   33.7326   -4.5496 F   0  0  0  0  0  0  0  0  0  0  0  0
 12 13  3  0  0  0
 13  6  1  0  0  0
  6  7  2  0  0  0
  7  8  1  0  0  0
  8  9  2  0  0  0
  9 10  1  0  0  0
 10  1  1  0  0  0
  1  2  1  0  0  0
  2  3  1  0  0  0
  3 18  1  0  0  0
 18 19  2  0  0  0
 18 20  2  0  0  0
 18 21  1  0  0  0
 21 22  2  0  0  0
 22 23  1  0  0  0
 23 24  2  0  0  0
 24 25  1  0  0  0
 25 26  2  0  0  0
 26 27  1  0  0  0
 27 28  1  0  0  0
 27 29  1  0  0  0
 27 30  1  0  0  0
  3  4  1  0  0  0
  4  5  1  0  0  0
  5 14  1  0  0  0
 14 15  2  0  0  0
 14 16  1  0  0  0
 10 11  2  0  0  0
 11  6  1  0  0  0
  5  1  1  0  0  0
 26 21  1  0  0  0
 16 17  1  0  0  0
M  END
> <minimizedAffinity>
-7.60082

> <CNNscore>
0.1512598693

> <CNNaffinity>
5.8656501770

> <CNN_VS>
0.8872374892

> <CNNaffinity_variance>
0.2454237044

$$$$
[H]OC(=O)[C@@]1([H])N(c2nc(C#N)nc([H])c2[H])C([H])([H])[C@@]([H])(S(=O)(=O)c2c([H])c([H])c([H])c([H])c2C(F)(F)F)C1([H])[H]


 30 32  0  0  0  0  0  0  0  0999 V2000
  -88.5453   27.3141    1.6763 N   0  0  0  0  0  0  0  0  0  0  0  0
  -87.2938   27.9907    1.9415 C   0  0  0  0  0  0  0  0  0  0  0  0
  -87.4389   29.2048    0.9829 C   0  0  0  0  0  0  0  0  0  0  0  0
  -87.8622   28.5152   -0.2466 C   0  0  0  0  0  0  0  0  0  0  0  0
  -88.7557   27.3694    0.2666 C   0  0  0  0  0  0  0  0  0  0  0  0
  -90.4770   24.8526    3.5779 C   0  0  0  0  0  0  0  0  0  0  0  0
  -90.9648   25.5883    4.5924 N   0  0  0  0  0  0  0  0  0  0  0  0
  -90.6892   26.9127    4.7040 C   0  0  0  0  0  0  0  0  0  0  0  0
  -89.8851   27.4528    3.7217 C   0  0  0  0  0  0  0  0  0  0  0  0
  -89.3705   26.7238    2.6702 C   0  0  0  0  0  0  0  0  0  0  0  0
  -89.6953   25.4125    2.6367 N   0  0  0  0  0  0  0  0  0  0  0  0
  -91.0791   22.3191    3.4529 N   0  0  0  0  0  0  0  0  0  0  0  0
  -90.8035   23.4575    3.5142 C   0  0  0  0  0  0  0  0  0  0  0  0
  -88.4416   26.1150   -0.4330 C   0  0  0  0  0  0  0  0  0  0  0  0
  -88.8411   25.9383   -1.6012 O   0  0  0  0  0  0  0  0  0  0  0  0
  -87.7085   25.1286    0.1889 O   0  0  0  0  0  0  0  0  0  0  0  0
  -88.0161   24.1630    0.2714 H   0  0  0  0  0  0  0  0  0  0  0  0
  -85.8162   29.9963    0.8650 S   0  0  0  0  0  0  0  0  0  0  0  0
  -85.4347   30.2728    2.2895 O   0  0  0  0  0  0  0  0  0  0  0  0
  -84.9548   28.9445    0.2579 O   0  0  0  0  0  0  0  0  0  0  0  0
  -85.9269   31.4719   -0.0346 C   0  0  0  0  0  0  0  0  0  0  0  0
  -87.1620   31.8484   -0.4829 C   0  0  0  0  0  0  0  0  0  0  0  0
  -87.2986   33.0269   -1.1837 C   0  0  0  0  0  0  0  0  0  0  0  0
  -86.2214   33.8350   -1.4430 C   0  0  0  0  0  0  0  0  0  0  0  0
  -84.9994   33.4221   -0.9756 C   0  0  0  0  0  0  0  0  0  0  0  0
  -84.8041   32.2326   -0.2580 C   0  0  0  0  0  0  0  0  0  0  0  0
  -83.4557   31.8876    0.1918 C   0  0  0  0  0  0  0  0  0  0  0  0
  -82.9218   30.7359   -0.3391 F   0  0  0  0  0  0  0  0  0  0  0  0
  -83.2791   31.9654    1.5586 F   0  0  0  0  0  0  0  0  0  0  0  0
  -82.5881   32.8844   -0.2875 F   0  0  0  0  0  0  0  0  0  0  0  0
 12 13  3  0  0  0
 13  6  1  0  0  0
  6  7  2  0  0  0
  7  8  1  0  0  0
  8  9  2  0  0  0
  9 10  1  0  0  0
 10  1  1  0  0  0
  1  2  1  0  0  0
  2  3  1  0  0  0
  3 18  1  0  0  0
 18 19  2  0  0  0
 18 20  2  0  0  0
 18 21  1  0  0  0
 21 22  2  0  0  0
 22 23  1  0  0  0
 23 24  2  0  0  0
 24 25  1  0  0  0
 25 26  2  0  0  0
 26 27  1  0  0  0
 27 28  1  0  0  0
 27 29  1  0  0  0
 27 30  1  0  0  0
  3  4  1  0  0  0
  4  5  1  0  0  0
  5 14  1  0  0  0
 14 15  2  0  0  0
 14 16  1  0  0  0
 10 11  2  0  0  0
 11  6  1  0  0  0
  5  1  1  0  0  0
 26 21  1  0  0  0
 16 17  1  0  0  0
M  END
> <minimizedAffinity>
-9.25597

> <CNNscore>
0.1480162591

> <CNNaffinity>
5.7359623909

> <CNN_VS>
0.8490157127

> <CNNaffinity_variance>
0.1403275579

$$$$
[H]OC(=O)[C@@]1([H])N(c2nc(C#N)nc([H])c2[H])C([H])([H])[C@@]([H])(S(=O)(=O)c2c([H])c([H])c([H])c([H])c2C(F)(F)F)C1([H])[H]


 30 32  0  0  0  0  0  0  0  0999 V2000
  -87.4307   31.0243   -0.6187 N   0  0  0  0  0  0  0  0  0  0  0  0
  -87.5176   31.4872   -1.9871 C   0  0  0  0  0  0  0  0  0  0  0  0
  -88.7235   32.4592   -1.8635 C   0  0  0  0  0  0  0  0  0  0  0  0
  -89.6692   31.6063   -1.1255 C   0  0  0  0  0  0  0  0  0  0  0  0
  -88.7665   30.8009   -0.1711 C   0  0  0  0  0  0  0  0  0  0  0  0
  -84.7730   29.5067    1.3913 C   0  0  0  0  0  0  0  0  0  0  0  0
  -83.8722   30.5013    1.4789 N   0  0  0  0  0  0  0  0  0  0  0  0
  -84.0869   31.7058    0.8909 C   0  0  0  0  0  0  0  0  0  0  0  0
  -85.2751   31.8456    0.2042 C   0  0  0  0  0  0  0  0  0  0  0  0
  -86.2173   30.8442    0.0972 C   0  0  0  0  0  0  0  0  0  0  0  0
  -85.9222   29.6781    0.7129 N   0  0  0  0  0  0  0  0  0  0  0  0
  -84.2639   27.2278    2.5509 N   0  0  0  0  0  0  0  0  0  0  0  0
  -84.4892   28.2564    2.0340 C   0  0  0  0  0  0  0  0  0  0  0  0
  -89.1616   29.3849   -0.1564 C   0  0  0  0  0  0  0  0  0  0  0  0
  -89.8848   28.9322   -1.0662 O   0  0  0  0  0  0  0  0  0  0  0  0
  -88.7409   28.5488    0.8540 O   0  0  0  0  0  0  0  0  0  0  0  0
  -89.3700   27.9838    1.4186 H   0  0  0  0  0  0  0  0  0  0  0  0
  -89.2568   32.8736   -3.5419 S   0  0  0  0  0  0  0  0  0  0  0  0
  -88.3124   32.1161   -4.4283 O   0  0  0  0  0  0  0  0  0  0  0  0
  -90.6402   32.3281   -3.6166 O   0  0  0  0  0  0  0  0  0  0  0  0
  -89.1179   34.5777   -3.8173 C   0  0  0  0  0  0  0  0  0  0  0  0
  -88.2678   35.2816   -3.0109 C   0  0  0  0  0  0  0  0  0  0  0  0
  -88.1105   36.6359   -3.2101 C   0  0  0  0  0  0  0  0  0  0  0  0
  -88.7881   37.2976   -4.2018 C   0  0  0  0  0  0  0  0  0  0  0  0
  -89.6310   36.5554   -4.9897 C   0  0  0  0  0  0  0  0  0  0  0  0
  -89.8287   35.1757   -4.8304 C   0  0  0  0  0  0  0  0  0  0  0  0
  -90.7540   34.4825   -5.7264 C   0  0  0  0  0  0  0  0  0  0  0  0
  -91.9683   34.1324   -5.1820 F   0  0  0  0  0  0  0  0  0  0  0  0
  -90.1817   33.4484   -6.4394 F   0  0  0  0  0  0  0  0  0  0  0  0
  -91.1146   35.3903   -6.7374 F   0  0  0  0  0  0  0  0  0  0  0  0
 12 13  3  0  0  0
 13  6  1  0  0  0
  6  7  2  0  0  0
  7  8  1  0  0  0
  8  9  2  0  0  0
  9 10  1  0  0  0
 10  1  1  0  0  0
  1  2  1  0  0  0
  2  3  1  0  0  0
  3 18  1  0  0  0
 18 19  2  0  0  0
 18 20  2  0  0  0
 18 21  1  0  0  0
 21 22  2  0  0  0
 22 23  1  0  0  0
 23 24  2  0  0  0
 24 25  1  0  0  0
 25 26  2  0  0  0
 26 27  1  0  0  0
 27 28  1  0  0  0
 27 29  1  0  0  0
 27 30  1  0  0  0
  3  4  1  0  0  0
  4  5  1  0  0  0
  5 14  1  0  0  0
 14 15  2  0  0  0
 14 16  1  0  0  0
 10 11  2  0  0  0
 11  6  1  0  0  0
  5  1  1  0  0  0
 26 21  1  0  0  0
 16 17  1  0  0  0
M  END
> <minimizedAffinity>
-7.02163

> <CNNscore>
0.1411830038

> <CNNaffinity>
5.7994723320

> <CNN_VS>
0.8187869191

> <CNNaffinity_variance>
0.3052999377

$$$$
[H]c1c([H])c([H])c(C([H])([H])n2c([H])nc(-c3c([H])c([H])c(F)c([H])c3[H])c2-c2nn3c([H])c(N([H])C(=O)C(C([H])([H])[H])(C([H])([H])[H])C([H])([H])[H])nc3c([H])c2[H])c([H])c1[H]


 36 40  0  0  0  0  0  0  0  0999 V2000
  -86.8102   28.5579    0.5832 C   0  0  0  0  0  0  0  0  0  0  0  0
  -85.7057   29.2185    1.0772 C   0  0  0  0  0  0  0  0  0  0  0  0
  -85.3090   28.5104    2.1751 N   0  0  0  0  0  0  0  0  0  0  0  0
  -86.0986   27.4752    2.3705 C   0  0  0  0  0  0  0  0  0  0  0  0
  -87.0320   27.5138    1.3722 N   0  0  0  0  0  0  0  0  0  0  0  0
  -90.4955   31.3407   -3.1128 C   0  0  0  0  0  0  0  0  0  0  0  0
  -90.1210   31.2985   -1.7891 C   0  0  0  0  0  0  0  0  0  0  0  0
  -89.1459   30.3526   -1.6335 N   0  0  0  0  0  0  0  0  0  0  0  0
  -88.4855   29.9551   -0.5672 N   0  0  0  0  0  0  0  0  0  0  0  0
  -87.5457   28.9959   -0.6000 C   0  0  0  0  0  0  0  0  0  0  0  0
  -87.2987   28.4336   -1.8304 C   0  0  0  0  0  0  0  0  0  0  0  0
  -87.9851   28.8386   -2.9716 C   0  0  0  0  0  0  0  0  0  0  0  0
  -88.9235   29.8209   -2.8412 C   0  0  0  0  0  0  0  0  0  0  0  0
  -89.7336   30.4142   -3.7285 N   0  0  0  0  0  0  0  0  0  0  0  0
  -91.1050   33.2313   -4.5716 C   0  0  0  0  0  0  0  0  0  0  0  0
  -89.8648   33.4112   -4.8221 O   0  0  0  0  0  0  0  0  0  0  0  0
  -91.4664   32.1753   -3.6981 N   0  0  0  0  0  0  0  0  0  0  0  0
  -92.4671   32.0220   -3.4902 H   0  0  0  0  0  0  0  0  0  0  0  0
  -91.8590   35.5125   -4.6133 C   0  0  0  0  0  0  0  0  0  0  0  0
  -92.0635   34.1356   -5.2097 C   0  0  0  0  0  0  0  0  0  0  0  0
  -91.7929   34.2173   -6.6817 C   0  0  0  0  0  0  0  0  0  0  0  0
  -93.4961   33.7377   -4.9303 C   0  0  0  0  0  0  0  0  0  0  0  0
  -85.0179   30.4152    0.6345 C   0  0  0  0  0  0  0  0  0  0  0  0
  -83.6453   30.4272    0.5628 C   0  0  0  0  0  0  0  0  0  0  0  0
  -82.9402   31.5514    0.1381 C   0  0  0  0  0  0  0  0  0  0  0  0
  -83.6178   32.6976   -0.2262 C   0  0  0  0  0  0  0  0  0  0  0  0
  -82.9257   33.7949   -0.6408 F   0  0  0  0  0  0  0  0  0  0  0  0
  -84.9902   32.6934   -0.1572 C   0  0  0  0  0  0  0  0  0  0  0  0
  -85.6763   31.5636    0.2685 C   0  0  0  0  0  0  0  0  0  0  0  0
  -88.0976   26.5350    1.2277 C   0  0  0  0  0  0  0  0  0  0  0  0
  -89.0314   26.5660    2.3667 C   0  0  0  0  0  0  0  0  0  0  0  0
  -89.1261   25.5450    3.2764 C   0  0  0  0  0  0  0  0  0  0  0  0
  -89.9848   25.5570    4.3428 C   0  0  0  0  0  0  0  0  0  0  0  0
  -90.8002   26.6599    4.5094 C   0  0  0  0  0  0  0  0  0  0  0  0
  -90.7257   27.7046    3.6061 C   0  0  0  0  0  0  0  0  0  0  0  0
  -89.8592   27.6703    2.5473 C   0  0  0  0  0  0  0  0  0  0  0  0
 19 20  1  0  0  0
 20 21  1  0  0  0
 20 22  1  0  0  0
 20 15  1  0  0  0
 15 16  2  0  0  0
 15 17  1  0  0  0
 17  6  1  0  0  0
  6  7  2  0  0  0
  7  8  1  0  0  0
  8  9  1  0  0  0
  9 10  2  0  0  0
 10  1  1  0  0  0
  1  2  2  0  0  0
  2 23  1  0  0  0
 23 24  2  0  0  0
 24 25  1  0  0  0
 25 26  2  0  0  0
 26 27  1  0  0  0
 26 28  1  0  0  0
 28 29  2  0  0  0
  2  3  1  0  0  0
  3  4  2  0  0  0
  4  5  1  0  0  0
  5 30  1  0  0  0
 30 31  1  0  0  0
 31 32  2  0  0  0
 32 33  1  0  0  0
 33 34  2  0  0  0
 34 35  1  0  0  0
 35 36  2  0  0  0
 10 11  1  0  0  0
 11 12  2  0  0  0
 12 13  1  0  0  0
 13 14  2  0  0  0
 14  6  1  0  0  0
 13  8  1  0  0  0
  5  1  1  0  0  0
 36 31  1  0  0  0
 29 23  1  0  0  0
 17 18  1  0  0  0
M  END
> <minimizedAffinity>
-9.44090

> <CNNscore>
0.2692646980

> <CNNaffinity>
7.2129278183

> <CNN_VS>
1.9421868324

> <CNNaffinity_variance>
0.0452013686

$$$$
[H]c1c([H])c([H])c(C([H])([H])n2c([H])nc(-c3c([H])c([H])c(F)c([H])c3[H])c2-c2nn3c([H])c(N([H])C(=O)C(C([H])([H])[H])(C([H])([H])[H])C([H])([H])[H])nc3c([H])c2[H])c([H])c1[H]


 36 40  0  0  0  0  0  0  0  0999 V2000
  -86.6913   28.4729    0.6588 C   0  0  0  0  0  0  0  0  0  0  0  0
  -85.5798   29.1387    1.1294 C   0  0  0  0  0  0  0  0  0  0  0  0
  -85.1474   28.4238    2.2093 N   0  0  0  0  0  0  0  0  0  0  0  0
  -85.9222   27.3797    2.4156 C   0  0  0  0  0  0  0  0  0  0  0  0
  -86.8825   27.4192    1.4431 N   0  0  0  0  0  0  0  0  0  0  0  0
  -90.6403   31.0989   -2.8760 C   0  0  0  0  0  0  0  0  0  0  0  0
  -90.2744   30.9964   -1.5532 C   0  0  0  0  0  0  0  0  0  0  0  0
  -89.1987   30.1581   -1.4538 N   0  0  0  0  0  0  0  0  0  0  0  0
  -88.5060   29.7562   -0.4099 N   0  0  0  0  0  0  0  0  0  0  0  0
  -87.4623   28.9154   -0.4999 C   0  0  0  0  0  0  0  0  0  0  0  0
  -87.1423   28.4825   -1.7652 C   0  0  0  0  0  0  0  0  0  0  0  0
  -87.8611   28.8948   -2.8837 C   0  0  0  0  0  0  0  0  0  0  0  0
  -88.9069   29.7510   -2.6946 C   0  0  0  0  0  0  0  0  0  0  0  0
  -89.7722   30.3159   -3.5477 N   0  0  0  0  0  0  0  0  0  0  0  0
  -93.0314   31.3877   -3.3988 C   0  0  0  0  0  0  0  0  0  0  0  0
  -93.2618   30.2421   -2.8812 O   0  0  0  0  0  0  0  0  0  0  0  0
  -91.6955   31.8609   -3.4123 N   0  0  0  0  0  0  0  0  0  0  0  0
  -91.4998   32.7866   -3.8284 H   0  0  0  0  0  0  0  0  0  0  0  0
  -93.6591   33.4697   -4.4211 C   0  0  0  0  0  0  0  0  0  0  0  0
  -94.1720   32.1279   -3.9417 C   0  0  0  0  0  0  0  0  0  0  0  0
  -94.7466   31.3981   -5.1180 C   0  0  0  0  0  0  0  0  0  0  0  0
  -95.2253   32.4033   -2.8912 C   0  0  0  0  0  0  0  0  0  0  0  0
  -84.9148   30.3459    0.6803 C   0  0  0  0  0  0  0  0  0  0  0  0
  -83.5416   30.4021    0.6597 C   0  0  0  0  0  0  0  0  0  0  0  0
  -82.8577   31.5378    0.2311 C   0  0  0  0  0  0  0  0  0  0  0  0
  -83.5577   32.6507   -0.1896 C   0  0  0  0  0  0  0  0  0  0  0  0
  -82.8863   33.7594   -0.6078 F   0  0  0  0  0  0  0  0  0  0  0  0
  -84.9309   32.6023   -0.1720 C   0  0  0  0  0  0  0  0  0  0  0  0
  -85.5957   31.4616    0.2585 C   0  0  0  0  0  0  0  0  0  0  0  0
  -87.9428   26.4322    1.3177 C   0  0  0  0  0  0  0  0  0  0  0  0
  -88.9119   26.5220    2.4236 C   0  0  0  0  0  0  0  0  0  0  0  0
  -89.6462   27.6515    2.6767 C   0  0  0  0  0  0  0  0  0  0  0  0
  -90.5537   27.7530    3.6969 C   0  0  0  0  0  0  0  0  0  0  0  0
  -90.7382   26.6553    4.5154 C   0  0  0  0  0  0  0  0  0  0  0  0
  -90.0103   25.5024    4.2829 C   0  0  0  0  0  0  0  0  0  0  0  0
  -89.1083   25.4243    3.2566 C   0  0  0  0  0  0  0  0  0  0  0  0
 19 20  1  0  0  0
 20 21  1  0  0  0
 20 22  1  0  0  0
 20 15  1  0  0  0
 15 16  2  0  0  0
 15 17  1  0  0  0
 17  6  1  0  0  0
  6  7  2  0  0  0
  7  8  1  0  0  0
  8  9  1  0  0  0
  9 10  2  0  0  0
 10  1  1  0  0  0
  1  2  2  0  0  0
  2 23  1  0  0  0
 23 24  2  0  0  0
 24 25  1  0  0  0
 25 26  2  0  0  0
 26 27  1  0  0  0
 26 28  1  0  0  0
 28 29  2  0  0  0
  2  3  1  0  0  0
  3  4  2  0  0  0
  4  5  1  0  0  0
  5 30  1  0  0  0
 30 31  1  0  0  0
 31 32  2  0  0  0
 32 33  1  0  0  0
 33 34  2  0  0  0
 34 35  1  0  0  0
 35 36  2  0  0  0
 10 11  1  0  0  0
 11 12  2  0  0  0
 12 13  1  0  0  0
 13 14  2  0  0  0
 14  6  1  0  0  0
 13  8  1  0  0  0
  5  1  1  0  0  0
 36 31  1  0  0  0
 29 23  1  0  0  0
 17 18  1  0  0  0
M  END
> <minimizedAffinity>
-9.23306

> <CNNscore>
0.2082699686

> <CNNaffinity>
7.1133475304

> <CNN_VS>
1.4814966917

> <CNNaffinity_variance>
0.0467760041

$$$$
[H]c1c([H])c([H])c(C([H])([H])n2c([H])nc(-c3c([H])c([H])c(F)c([H])c3[H])c2-c2nn3c([H])c(N([H])C(=O)C(C([H])([H])[H])(C([H])([H])[H])C([H])([H])[H])nc3c([H])c2[H])c([H])c1[H]


 36 40  0  0  0  0  0  0  0  0999 V2000
  -87.1019   28.4048    0.8427 C   0  0  0  0  0  0  0  0  0  0  0  0
  -87.2412   27.8540    2.0986 C   0  0  0  0  0  0  0  0  0  0  0  0
  -85.9873   27.8372    2.6386 N   0  0  0  0  0  0  0  0  0  0  0  0
  -85.1109   28.3387    1.7937 C   0  0  0  0  0  0  0  0  0  0  0  0
  -85.8162   28.6897    0.6762 N   0  0  0  0  0  0  0  0  0  0  0  0
  -91.3700   30.7887   -2.4870 C   0  0  0  0  0  0  0  0  0  0  0  0
  -90.3728   31.1298   -1.6019 C   0  0  0  0  0  0  0  0  0  0  0  0
  -89.7325   29.9923   -1.1945 N   0  0  0  0  0  0  0  0  0  0  0  0
  -88.7279   29.8127   -0.3640 N   0  0  0  0  0  0  0  0  0  0  0  0
  -88.2197   28.6031   -0.0761 C   0  0  0  0  0  0  0  0  0  0  0  0
  -88.8123   27.5333   -0.7048 C   0  0  0  0  0  0  0  0  0  0  0  0
  -89.8760   27.6999   -1.5871 C   0  0  0  0  0  0  0  0  0  0  0  0
  -90.3254   28.9676   -1.8182 C   0  0  0  0  0  0  0  0  0  0  0  0
  -91.3080   29.4460   -2.5936 N   0  0  0  0  0  0  0  0  0  0  0  0
  -91.9236   32.2800   -4.3694 C   0  0  0  0  0  0  0  0  0  0  0  0
  -90.7774   32.0309   -4.8770 O   0  0  0  0  0  0  0  0  0  0  0  0
  -92.2629   31.6579   -3.1420 N   0  0  0  0  0  0  0  0  0  0  0  0
  -93.1879   31.8531   -2.7243 H   0  0  0  0  0  0  0  0  0  0  0  0
  -92.1194   34.5450   -5.1477 C   0  0  0  0  0  0  0  0  0  0  0  0
  -92.8036   33.1948   -5.0990 C   0  0  0  0  0  0  0  0  0  0  0  0
  -92.9934   32.7143   -6.5059 C   0  0  0  0  0  0  0  0  0  0  0  0
  -94.1291   33.3925   -4.3968 C   0  0  0  0  0  0  0  0  0  0  0  0
  -88.4000   27.3519    2.8101 C   0  0  0  0  0  0  0  0  0  0  0  0
  -88.7271   26.0194    2.7289 C   0  0  0  0  0  0  0  0  0  0  0  0
  -89.8276   25.4894    3.3992 C   0  0  0  0  0  0  0  0  0  0  0  0
  -90.6270   26.3064    4.1731 C   0  0  0  0  0  0  0  0  0  0  0  0
  -91.7022   25.7853    4.8269 F   0  0  0  0  0  0  0  0  0  0  0  0
  -90.3065   27.6399    4.2594 C   0  0  0  0  0  0  0  0  0  0  0  0
  -89.2057   28.1506    3.5842 C   0  0  0  0  0  0  0  0  0  0  0  0
  -85.2112   29.2867   -0.5035 C   0  0  0  0  0  0  0  0  0  0  0  0
  -84.7124   30.6471   -0.2374 C   0  0  0  0  0  0  0  0  0  0  0  0
  -83.3943   30.9158    0.0257 C   0  0  0  0  0  0  0  0  0  0  0  0
  -82.9112   32.1731    0.2717 C   0  0  0  0  0  0  0  0  0  0  0  0
  -83.8032   33.2280    0.2534 C   0  0  0  0  0  0  0  0  0  0  0  0
  -85.1394   32.9857   -0.0093 C   0  0  0  0  0  0  0  0  0  0  0  0
  -85.5993   31.7198   -0.2524 C   0  0  0  0  0  0  0  0  0  0  0  0
 19 20  1  0  0  0
 20 21  1  0  0  0
 20 22  1  0  0  0
 20 15  1  0  0  0
 15 16  2  0  0  0
 15 17  1  0  0  0
 17  6  1  0  0  0
  6  7  2  0  0  0
  7  8  1  0  0  0
  8  9  1  0  0  0
  9 10  2  0  0  0
 10  1  1  0  0  0
  1  2  2  0  0  0
  2 23  1  0  0  0
 23 24  2  0  0  0
 24 25  1  0  0  0
 25 26  2  0  0  0
 26 27  1  0  0  0
 26 28  1  0  0  0
 28 29  2  0  0  0
  2  3  1  0  0  0
  3  4  2  0  0  0
  4  5  1  0  0  0
  5 30  1  0  0  0
 30 31  1  0  0  0
 31 32  2  0  0  0
 32 33  1  0  0  0
 33 34  2  0  0  0
 34 35  1  0  0  0
 35 36  2  0  0  0
 10 11  1  0  0  0
 11 12  2  0  0  0
 12 13  1  0  0  0
 13 14  2  0  0  0
 14  6  1  0  0  0
 13  8  1  0  0  0
  5  1  1  0  0  0
 36 31  1  0  0  0
 29 23  1  0  0  0
 17 18  1  0  0  0
M  END
> <minimizedAffinity>
-7.57870

> <CNNscore>
0.1393705606

> <CNNaffinity>
6.8858032227

> <CNN_VS>
0.9596782327

> <CNNaffinity_variance>
0.2732120454

$$$$
[H]c1c([H])c([H])c(C([H])([H])n2c([H])nc(-c3c([H])c([H])c(F)c([H])c3[H])c2-c2nn3c([H])c(N([H])C(=O)C(C([H])([H])[H])(C([H])([H])[H])C([H])([H])[H])nc3c([H])c2[H])c([H])c1[H]


 36 40  0  0  0  0  0  0  0  0999 V2000
  -87.2139   32.2373   -1.3211 C   0  0  0  0  0  0  0  0  0  0  0  0
  -85.9525   32.3009   -0.7691 C   0  0  0  0  0  0  0  0  0  0  0  0
  -85.4025   33.4622   -1.2306 N   0  0  0  0  0  0  0  0  0  0  0  0
  -86.2465   34.0949   -2.0185 C   0  0  0  0  0  0  0  0  0  0  0  0
  -87.3736   33.3225   -2.0687 N   0  0  0  0  0  0  0  0  0  0  0  0
  -89.9565   26.9967   -1.3557 C   0  0  0  0  0  0  0  0  0  0  0  0
  -88.8695   27.6507   -1.8893 C   0  0  0  0  0  0  0  0  0  0  0  0
  -88.8455   28.9327   -1.4145 N   0  0  0  0  0  0  0  0  0  0  0  0
  -88.0103   29.9247   -1.6375 N   0  0  0  0  0  0  0  0  0  0  0  0
  -88.1436   31.1379   -1.0764 C   0  0  0  0  0  0  0  0  0  0  0  0
  -89.2204   31.3004   -0.2367 C   0  0  0  0  0  0  0  0  0  0  0  0
  -90.1164   30.2650    0.0137 C   0  0  0  0  0  0  0  0  0  0  0  0
  -89.9001   29.0663   -0.6018 C   0  0  0  0  0  0  0  0  0  0  0  0
  -90.5665   27.9043   -0.5669 N   0  0  0  0  0  0  0  0  0  0  0  0
  -90.3560   24.7059   -0.5395 C   0  0  0  0  0  0  0  0  0  0  0  0
  -90.0017   25.0824    0.6292 O   0  0  0  0  0  0  0  0  0  0  0  0
  -90.3463   25.6635   -1.5843 N   0  0  0  0  0  0  0  0  0  0  0  0
  -90.6318   25.3681   -2.5326 H   0  0  0  0  0  0  0  0  0  0  0  0
  -91.1571   23.1193   -2.1568 C   0  0  0  0  0  0  0  0  0  0  0  0
  -90.7469   23.3053   -0.7109 C   0  0  0  0  0  0  0  0  0  0  0  0
  -89.5789   22.4073   -0.4356 C   0  0  0  0  0  0  0  0  0  0  0  0
  -91.9417   22.9383    0.1416 C   0  0  0  0  0  0  0  0  0  0  0  0
  -85.2378   31.4001    0.1135 C   0  0  0  0  0  0  0  0  0  0  0  0
  -83.8648   31.3508    0.0734 C   0  0  0  0  0  0  0  0  0  0  0  0
  -83.1339   30.5056    0.9057 C   0  0  0  0  0  0  0  0  0  0  0  0
  -83.7853   29.6851    1.8045 C   0  0  0  0  0  0  0  0  0  0  0  0
  -83.0680   28.8599    2.6166 F   0  0  0  0  0  0  0  0  0  0  0  0
  -85.1580   29.7285    1.8506 C   0  0  0  0  0  0  0  0  0  0  0  0
  -85.8700   30.5773    1.0133 C   0  0  0  0  0  0  0  0  0  0  0  0
  -88.5559   33.6722   -2.8394 C   0  0  0  0  0  0  0  0  0  0  0  0
  -88.3195   34.8348   -3.7127 C   0  0  0  0  0  0  0  0  0  0  0  0
  -87.9098   34.7132   -5.0151 C   0  0  0  0  0  0  0  0  0  0  0  0
  -87.6884   35.7811   -5.8431 C   0  0  0  0  0  0  0  0  0  0  0  0
  -87.8895   37.0504   -5.3360 C   0  0  0  0  0  0  0  0  0  0  0  0
  -88.3028   37.2024   -4.0248 C   0  0  0  0  0  0  0  0  0  0  0  0
  -88.5178   36.1198   -3.2157 C   0  0  0  0  0  0  0  0  0  0  0  0
 19 20  1  0  0  0
 20 21  1  0  0  0
 20 22  1  0  0  0
 20 15  1  0  0  0
 15 16  2  0  0  0
 15 17  1  0  0  0
 17  6  1  0  0  0
  6  7  2  0  0  0
  7  8  1  0  0  0
  8  9  1  0  0  0
  9 10  2  0  0  0
 10  1  1  0  0  0
  1  2  2  0  0  0
  2 23  1  0  0  0
 23 24  2  0  0  0
 24 25  1  0  0  0
 25 26  2  0  0  0
 26 27  1  0  0  0
 26 28  1  0  0  0
 28 29  2  0  0  0
  2  3  1  0  0  0
  3  4  2  0  0  0
  4  5  1  0  0  0
  5 30  1  0  0  0
 30 31  1  0  0  0
 31 32  2  0  0  0
 32 33  1  0  0  0
 33 34  2  0  0  0
 34 35  1  0  0  0
 35 36  2  0  0  0
 10 11  1  0  0  0
 11 12  2  0  0  0
 12 13  1  0  0  0
 13 14  2  0  0  0
 14  6  1  0  0  0
 13  8  1  0  0  0
  5  1  1  0  0  0
 36 31  1  0  0  0
 29 23  1  0  0  0
 17 18  1  0  0  0
M  END
> <minimizedAffinity>
-9.31930

> <CNNscore>
0.1340762824

> <CNNaffinity>
6.8710594177

> <CNN_VS>
0.9212461114

> <CNNaffinity_variance>
0.0986143127

$$$$
[H]c1c([H])c([H])c(C([H])([H])n2c([H])nc(-c3c([H])c([H])c(F)c([H])c3[H])c2-c2nn3c([H])c(N([H])C(=O)C(C([H])([H])[H])(C([H])([H])[H])C([H])([H])[H])nc3c([H])c2[H])c([H])c1[H]


 36 40  0  0  0  0  0  0  0  0999 V2000
  -86.8246   32.2832   -0.8163 C   0  0  0  0  0  0  0  0  0  0  0  0
  -85.6591   32.0966   -0.1044 C   0  0  0  0  0  0  0  0  0  0  0  0
  -84.8718   33.1749   -0.3904 N   0  0  0  0  0  0  0  0  0  0  0  0
  -85.4853   33.9904   -1.2222 C   0  0  0  0  0  0  0  0  0  0  0  0
  -86.7029   33.4251   -1.4819 N   0  0  0  0  0  0  0  0  0  0  0  0
  -90.2491   27.5004   -1.4358 C   0  0  0  0  0  0  0  0  0  0  0  0
  -88.9797   27.9618   -1.7001 C   0  0  0  0  0  0  0  0  0  0  0  0
  -88.8732   29.2495   -1.2527 N   0  0  0  0  0  0  0  0  0  0  0  0
  -87.8674   30.0972   -1.2816 N   0  0  0  0  0  0  0  0  0  0  0  0
  -87.9427   31.3441   -0.7875 C   0  0  0  0  0  0  0  0  0  0  0  0
  -89.1499   31.7037   -0.2360 C   0  0  0  0  0  0  0  0  0  0  0  0
  -90.2273   30.8233   -0.1945 C   0  0  0  0  0  0  0  0  0  0  0  0
  -90.0572   29.5759   -0.7216 C   0  0  0  0  0  0  0  0  0  0  0  0
  -90.8825   28.5260   -0.8317 N   0  0  0  0  0  0  0  0  0  0  0  0
  -90.7093   25.1652   -0.7965 C   0  0  0  0  0  0  0  0  0  0  0  0
  -90.1624   25.3892    0.3367 O   0  0  0  0  0  0  0  0  0  0  0  0
  -90.7728   26.2278   -1.7322 N   0  0  0  0  0  0  0  0  0  0  0  0
  -91.2138   26.0559   -2.6510 H   0  0  0  0  0  0  0  0  0  0  0  0
  -90.0944   22.8425   -0.8280 C   0  0  0  0  0  0  0  0  0  0  0  0
  -91.2312   23.8196   -1.0429 C   0  0  0  0  0  0  0  0  0  0  0  0
  -92.3163   23.5002   -0.0595 C   0  0  0  0  0  0  0  0  0  0  0  0
  -91.7056   23.6442   -2.4687 C   0  0  0  0  0  0  0  0  0  0  0  0
  -85.2278   31.0333    0.7813 C   0  0  0  0  0  0  0  0  0  0  0  0
  -85.1976   31.2452    2.1390 C   0  0  0  0  0  0  0  0  0  0  0  0
  -84.7960   30.2524    3.0303 C   0  0  0  0  0  0  0  0  0  0  0  0
  -84.4132   29.0124    2.5598 C   0  0  0  0  0  0  0  0  0  0  0  0
  -84.0211   28.0440    3.4335 F   0  0  0  0  0  0  0  0  0  0  0  0
  -84.4407   28.7927    1.2035 C   0  0  0  0  0  0  0  0  0  0  0  0
  -84.8438   29.7942    0.3301 C   0  0  0  0  0  0  0  0  0  0  0  0
  -87.6946   34.0187   -2.3642 C   0  0  0  0  0  0  0  0  0  0  0  0
  -88.2632   33.0304   -3.2970 C   0  0  0  0  0  0  0  0  0  0  0  0
  -87.4874   32.1736   -4.0338 C   0  0  0  0  0  0  0  0  0  0  0  0
  -87.9972   31.2464   -4.9028 C   0  0  0  0  0  0  0  0  0  0  0  0
  -89.3696   31.1718   -5.0435 C   0  0  0  0  0  0  0  0  0  0  0  0
  -90.1765   32.0246   -4.3123 C   0  0  0  0  0  0  0  0  0  0  0  0
  -89.6441   32.9438   -3.4494 C   0  0  0  0  0  0  0  0  0  0  0  0
 19 20  1  0  0  0
 20 21  1  0  0  0
 20 22  1  0  0  0
 20 15  1  0  0  0
 15 16  2  0  0  0
 15 17  1  0  0  0
 17  6  1  0  0  0
  6  7  2  0  0  0
  7  8  1  0  0  0
  8  9  1  0  0  0
  9 10  2  0  0  0
 10  1  1  0  0  0
  1  2  2  0  0  0
  2 23  1  0  0  0
 23 24  2  0  0  0
 24 25  1  0  0  0
 25 26  2  0  0  0
 26 27  1  0  0  0
 26 28  1  0  0  0
 28 29  2  0  0  0
  2  3  1  0  0  0
  3  4  2  0  0  0
  4  5  1  0  0  0
  5 30  1  0  0  0
 30 31  1  0  0  0
 31 32  2  0  0  0
 32 33  1  0  0  0
 33 34  2  0  0  0
 34 35  1  0  0  0
 35 36  2  0  0  0
 10 11  1  0  0  0
 11 12  2  0  0  0
 12 13  1  0  0  0
 13 14  2  0  0  0
 14  6  1  0  0  0
 13  8  1  0  0  0
  5  1  1  0  0  0
 36 31  1  0  0  0
 29 23  1  0  0  0
 17 18  1  0  0  0
M  END
> <minimizedAffinity>
-8.51444

> <CNNscore>
0.1059686691

> <CNNaffinity>
6.6893653870

> <CNN_VS>
0.7088631392

> <CNNaffinity_variance>
0.2579345107

$$$$
[H]c1c([H])c([H])c(C([H])([H])n2c([H])nc(-c3c([H])c([H])c(F)c([H])c3[H])c2-c2nn3c([H])c(N([H])C(=O)C(C([H])([H])[H])(C([H])([H])[H])C([H])([H])[H])nc3c([H])c2[H])c([H])c1[H]


 36 40  0  0  0  0  0  0  0  0999 V2000
  -87.1601   28.1631    0.3125 C   0  0  0  0  0  0  0  0  0  0  0  0
  -86.1179   28.4478    1.1686 C   0  0  0  0  0  0  0  0  0  0  0  0
  -86.0647   27.4058    2.0493 N   0  0  0  0  0  0  0  0  0  0  0  0
  -87.0011   26.5207    1.7790 C   0  0  0  0  0  0  0  0  0  0  0  0
  -87.6792   27.0024    0.6938 N   0  0  0  0  0  0  0  0  0  0  0  0
  -89.2157   32.6803   -2.9053 C   0  0  0  0  0  0  0  0  0  0  0  0
  -89.0404   32.2739   -1.6022 C   0  0  0  0  0  0  0  0  0  0  0  0
  -88.4677   31.0322   -1.5977 N   0  0  0  0  0  0  0  0  0  0  0  0
  -88.1142   30.2438   -0.6054 N   0  0  0  0  0  0  0  0  0  0  0  0
  -87.5560   29.0359   -0.7894 C   0  0  0  0  0  0  0  0  0  0  0  0
  -87.3662   28.6506   -2.0957 C   0  0  0  0  0  0  0  0  0  0  0  0
  -87.7324   29.4683   -3.1609 C   0  0  0  0  0  0  0  0  0  0  0  0
  -88.2932   30.6797   -2.8767 C   0  0  0  0  0  0  0  0  0  0  0  0
  -88.7422   31.6690   -3.6610 N   0  0  0  0  0  0  0  0  0  0  0  0
  -88.9506   34.9864   -3.7333 C   0  0  0  0  0  0  0  0  0  0  0  0
  -87.6824   34.8437   -3.6637 O   0  0  0  0  0  0  0  0  0  0  0  0
  -89.7701   33.8946   -3.3526 N   0  0  0  0  0  0  0  0  0  0  0  0
  -90.7968   34.0008   -3.4061 H   0  0  0  0  0  0  0  0  0  0  0  0
  -90.9293   36.3463   -3.8320 C   0  0  0  0  0  0  0  0  0  0  0  0
  -89.4628   36.2749   -4.2034 C   0  0  0  0  0  0  0  0  0  0  0  0
  -88.7487   37.3964   -3.5114 C   0  0  0  0  0  0  0  0  0  0  0  0
  -89.3776   36.4078   -5.7081 C   0  0  0  0  0  0  0  0  0  0  0  0
  -85.2053   29.5717    1.2392 C   0  0  0  0  0  0  0  0  0  0  0  0
  -84.3310   29.8079    0.2053 C   0  0  0  0  0  0  0  0  0  0  0  0
  -83.4393   30.8783    0.2252 C   0  0  0  0  0  0  0  0  0  0  0  0
  -83.4148   31.7399    1.3034 C   0  0  0  0  0  0  0  0  0  0  0  0
  -82.5419   32.7852    1.3199 F   0  0  0  0  0  0  0  0  0  0  0  0
  -84.2859   31.5105    2.3412 C   0  0  0  0  0  0  0  0  0  0  0  0
  -85.1677   30.4384    2.3041 C   0  0  0  0  0  0  0  0  0  0  0  0
  -88.8005   26.3145    0.0745 C   0  0  0  0  0  0  0  0  0  0  0  0
  -89.9170   27.2312   -0.2143 C   0  0  0  0  0  0  0  0  0  0  0  0
  -90.5048   27.3184   -1.4496 C   0  0  0  0  0  0  0  0  0  0  0  0
  -91.5452   28.1611   -1.7363 C   0  0  0  0  0  0  0  0  0  0  0  0
  -92.0277   28.9674   -0.7234 C   0  0  0  0  0  0  0  0  0  0  0  0
  -91.4532   28.9001    0.5329 C   0  0  0  0  0  0  0  0  0  0  0  0
  -90.4137   28.0497    0.7961 C   0  0  0  0  0  0  0  0  0  0  0  0
 19 20  1  0  0  0
 20 21  1  0  0  0
 20 22  1  0  0  0
 20 15  1  0  0  0
 15 16  2  0  0  0
 15 17  1  0  0  0
 17  6  1  0  0  0
  6  7  2  0  0  0
  7  8  1  0  0  0
  8  9  1  0  0  0
  9 10  2  0  0  0
 10  1  1  0  0  0
  1  2  2  0  0  0
  2 23  1  0  0  0
 23 24  2  0  0  0
 24 25  1  0  0  0
 25 26  2  0  0  0
 26 27  1  0  0  0
 26 28  1  0  0  0
 28 29  2  0  0  0
  2  3  1  0  0  0
  3  4  2  0  0  0
  4  5  1  0  0  0
  5 30  1  0  0  0
 30 31  1  0  0  0
 31 32  2  0  0  0
 32 33  1  0  0  0
 33 34  2  0  0  0
 34 35  1  0  0  0
 35 36  2  0  0  0
 10 11  1  0  0  0
 11 12  2  0  0  0
 12 13  1  0  0  0
 13 14  2  0  0  0
 14  6  1  0  0  0
 13  8  1  0  0  0
  5  1  1  0  0  0
 36 31  1  0  0  0
 29 23  1  0  0  0
 17 18  1  0  0  0
M  END
> <minimizedAffinity>
-9.05439

> <CNNscore>
0.0969259962

> <CNNaffinity>
6.8207192421

> <CNN_VS>
0.6611050367

> <CNNaffinity_variance>
0.2201519310

$$$$
[H]c1c([H])c([H])c(C([H])([H])n2c([H])nc(-c3c([H])c([H])c(F)c([H])c3[H])c2-c2nn3c([H])c(N([H])C(=O)C(C([H])([H])[H])(C([H])([H])[H])C([H])([H])[H])nc3c([H])c2[H])c([H])c1[H]


 36 40  0  0  0  0  0  0  0  0999 V2000
  -87.6631   31.7898   -1.3987 C   0  0  0  0  0  0  0  0  0  0  0  0
  -86.4497   31.8576   -0.7483 C   0  0  0  0  0  0  0  0  0  0  0  0
  -85.8419   32.9890   -1.2117 N   0  0  0  0  0  0  0  0  0  0  0  0
  -86.6068   33.6000   -2.0920 C   0  0  0  0  0  0  0  0  0  0  0  0
  -87.7407   32.8438   -2.2018 N   0  0  0  0  0  0  0  0  0  0  0  0
  -90.8479   26.8284   -1.8755 C   0  0  0  0  0  0  0  0  0  0  0  0
  -89.8230   27.5168   -2.4835 C   0  0  0  0  0  0  0  0  0  0  0  0
  -89.5891   28.6706   -1.7879 N   0  0  0  0  0  0  0  0  0  0  0  0
  -88.7202   29.6394   -1.9821 N   0  0  0  0  0  0  0  0  0  0  0  0
  -88.6304   30.7168   -1.1849 C   0  0  0  0  0  0  0  0  0  0  0  0
  -89.5106   30.7626   -0.1294 C   0  0  0  0  0  0  0  0  0  0  0  0
  -90.4379   29.7491    0.0953 C   0  0  0  0  0  0  0  0  0  0  0  0
  -90.4554   28.6925   -0.7683 C   0  0  0  0  0  0  0  0  0  0  0  0
  -91.2106   27.5868   -0.8213 N   0  0  0  0  0  0  0  0  0  0  0  0
  -92.6746   25.5148   -2.8812 C   0  0  0  0  0  0  0  0  0  0  0  0
  -93.3228   26.5998   -3.0710 O   0  0  0  0  0  0  0  0  0  0  0  0
  -91.3982   25.5943   -2.2703 N   0  0  0  0  0  0  0  0  0  0  0  0
  -90.8667   24.7220   -2.1133 H   0  0  0  0  0  0  0  0  0  0  0  0
  -94.4218   23.9574   -2.3370 C   0  0  0  0  0  0  0  0  0  0  0  0
  -93.3043   24.2651   -3.3117 C   0  0  0  0  0  0  0  0  0  0  0  0
  -93.9042   24.4337   -4.6748 C   0  0  0  0  0  0  0  0  0  0  0  0
  -92.3427   23.0979   -3.2693 C   0  0  0  0  0  0  0  0  0  0  0  0
  -85.8263   30.9850    0.2270 C   0  0  0  0  0  0  0  0  0  0  0  0
  -85.1998   31.5247    1.3249 C   0  0  0  0  0  0  0  0  0  0  0  0
  -84.5918   30.7267    2.2917 C   0  0  0  0  0  0  0  0  0  0  0  0
  -84.6061   29.3522    2.1650 C   0  0  0  0  0  0  0  0  0  0  0  0
  -84.0107   28.5749    3.1117 F   0  0  0  0  0  0  0  0  0  0  0  0
  -85.2305   28.8049    1.0700 C   0  0  0  0  0  0  0  0  0  0  0  0
  -85.8313   29.6160    0.1162 C   0  0  0  0  0  0  0  0  0  0  0  0
  -88.8496   33.1782   -3.0808 C   0  0  0  0  0  0  0  0  0  0  0  0
  -88.6152   34.4380   -3.8077 C   0  0  0  0  0  0  0  0  0  0  0  0
  -87.9843   34.4866   -5.0236 C   0  0  0  0  0  0  0  0  0  0  0  0
  -87.7606   35.6466   -5.7158 C   0  0  0  0  0  0  0  0  0  0  0  0
  -88.1954   36.8326   -5.1561 C   0  0  0  0  0  0  0  0  0  0  0  0
  -88.8349   36.8129   -3.9298 C   0  0  0  0  0  0  0  0  0  0  0  0
  -89.0475   35.6407   -3.2561 C   0  0  0  0  0  0  0  0  0  0  0  0
 19 20  1  0  0  0
 20 21  1  0  0  0
 20 22  1  0  0  0
 20 15  1  0  0  0
 15 16  2  0  0  0
 15 17  1  0  0  0
 17  6  1  0  0  0
  6  7  2  0  0  0
  7  8  1  0  0  0
  8  9  1  0  0  0
  9 10  2  0  0  0
 10  1  1  0  0  0
  1  2  2  0  0  0
  2 23  1  0  0  0
 23 24  2  0  0  0
 24 25  1  0  0  0
 25 26  2  0  0  0
 26 27  1  0  0  0
 26 28  1  0  0  0
 28 29  2  0  0  0
  2  3  1  0  0  0
  3  4  2  0  0  0
  4  5  1  0  0  0
  5 30  1  0  0  0
 30 31  1  0  0  0
 31 32  2  0  0  0
 32 33  1  0  0  0
 33 34  2  0  0  0
 34 35  1  0  0  0
 35 36  2  0  0  0
 10 11  1  0  0  0
 11 12  2  0  0  0
 12 13  1  0  0  0
 13 14  2  0  0  0
 14  6  1  0  0  0
 13  8  1  0  0  0
  5  1  1  0  0  0
 36 31  1  0  0  0
 29 23  1  0  0  0
 17 18  1  0  0  0
M  END
> <minimizedAffinity>
-8.93847

> <CNNscore>
0.0695871934

> <CNNaffinity>
6.4831633568

> <CNN_VS>
0.4511451423

> <CNNaffinity_variance>
0.1668563187

$$$$
[H]c1c([H])c([H])c(C([H])([H])n2c([H])nc(-c3c([H])c([H])c(F)c([H])c3[H])c2-c2nn3c([H])c(N([H])C(=O)C(C([H])([H])[H])(C([H])([H])[H])C([H])([H])[H])nc3c([H])c2[H])c([H])c1[H]


 36 40  0  0  0  0  0  0  0  0999 V2000
  -86.8522   32.0261   -0.9643 C   0  0  0  0  0  0  0  0  0  0  0  0
  -86.4393   33.0675   -1.7674 C   0  0  0  0  0  0  0  0  0  0  0  0
  -85.1774   33.3809   -1.3507 N   0  0  0  0  0  0  0  0  0  0  0  0
  -84.8092   32.6004   -0.3565 C   0  0  0  0  0  0  0  0  0  0  0  0
  -85.8611   31.7587   -0.1228 N   0  0  0  0  0  0  0  0  0  0  0  0
  -91.3529   28.5404   -2.5706 C   0  0  0  0  0  0  0  0  0  0  0  0
  -90.0234   28.7787   -2.8348 C   0  0  0  0  0  0  0  0  0  0  0  0
  -89.5891   29.8025   -2.0391 N   0  0  0  0  0  0  0  0  0  0  0  0
  -88.4112   30.3791   -1.9334 N   0  0  0  0  0  0  0  0  0  0  0  0
  -88.1610   31.3892   -1.0840 C   0  0  0  0  0  0  0  0  0  0  0  0
  -89.2191   31.8042   -0.3100 C   0  0  0  0  0  0  0  0  0  0  0  0
  -90.4737   31.2088   -0.4050 C   0  0  0  0  0  0  0  0  0  0  0  0
  -90.6337   30.1884   -1.2971 C   0  0  0  0  0  0  0  0  0  0  0  0
  -91.6918   29.4308   -1.6164 N   0  0  0  0  0  0  0  0  0  0  0  0
  -92.6763   27.7339   -4.4868 C   0  0  0  0  0  0  0  0  0  0  0  0
  -92.3500   28.7890   -5.1300 O   0  0  0  0  0  0  0  0  0  0  0  0
  -92.1809   27.5718   -3.1688 N   0  0  0  0  0  0  0  0  0  0  0  0
  -92.4392   26.7214   -2.6413 H   0  0  0  0  0  0  0  0  0  0  0  0
  -93.4406   25.4569   -4.4129 C   0  0  0  0  0  0  0  0  0  0  0  0
  -93.5424   26.7675   -5.1648 C   0  0  0  0  0  0  0  0  0  0  0  0
  -94.9677   27.2284   -5.1128 C   0  0  0  0  0  0  0  0  0  0  0  0
  -93.0970   26.5013   -6.5859 C   0  0  0  0  0  0  0  0  0  0  0  0
  -87.0995   33.7763   -2.8458 C   0  0  0  0  0  0  0  0  0  0  0  0
  -87.5215   33.0880   -3.9581 C   0  0  0  0  0  0  0  0  0  0  0  0
  -88.1654   33.7244   -5.0172 C   0  0  0  0  0  0  0  0  0  0  0  0
  -88.3974   35.0843   -4.9706 C   0  0  0  0  0  0  0  0  0  0  0  0
  -89.0269   35.7035   -6.0076 F   0  0  0  0  0  0  0  0  0  0  0  0
  -87.9785   35.7796   -3.8618 C   0  0  0  0  0  0  0  0  0  0  0  0
  -87.3382   35.1285   -2.8156 C   0  0  0  0  0  0  0  0  0  0  0  0
  -85.8574   30.7317    0.9065 C   0  0  0  0  0  0  0  0  0  0  0  0
  -86.4286   29.4636    0.4207 C   0  0  0  0  0  0  0  0  0  0  0  0
  -87.4650   28.8267    1.0524 C   0  0  0  0  0  0  0  0  0  0  0  0
  -88.0114   27.6500    0.6145 C   0  0  0  0  0  0  0  0  0  0  0  0
  -87.4879   27.0745   -0.5272 C   0  0  0  0  0  0  0  0  0  0  0  0
  -86.4415   27.6957   -1.1847 C   0  0  0  0  0  0  0  0  0  0  0  0
  -85.9113   28.8719   -0.7281 C   0  0  0  0  0  0  0  0  0  0  0  0
 19 20  1  0  0  0
 20 21  1  0  0  0
 20 22  1  0  0  0
 20 15  1  0  0  0
 15 16  2  0  0  0
 15 17  1  0  0  0
 17  6  1  0  0  0
  6  7  2  0  0  0
  7  8  1  0  0  0
  8  9  1  0  0  0
  9 10  2  0  0  0
 10  1  1  0  0  0
  1  2  2  0  0  0
  2 23  1  0  0  0
 23 24  2  0  0  0
 24 25  1  0  0  0
 25 26  2  0  0  0
 26 27  1  0  0  0
 26 28  1  0  0  0
 28 29  2  0  0  0
  2  3  1  0  0  0
  3  4  2  0  0  0
  4  5  1  0  0  0
  5 30  1  0  0  0
 30 31  1  0  0  0
 31 32  2  0  0  0
 32 33  1  0  0  0
 33 34  2  0  0  0
 34 35  1  0  0  0
 35 36  2  0  0  0
 10 11  1  0  0  0
 11 12  2  0  0  0
 12 13  1  0  0  0
 13 14  2  0  0  0
 14  6  1  0  0  0
 13  8  1  0  0  0
  5  1  1  0  0  0
 36 31  1  0  0  0
 29 23  1  0  0  0
 17 18  1  0  0  0
M  END
> <minimizedAffinity>
-7.29414

> <CNNscore>
0.0545642264

> <CNNaffinity>
6.4254713058

> <CNN_VS>
0.3506008685

> <CNNaffinity_variance>
0.1772999763

$$$$
[H]c1c([H])c([H])c(C([H])([H])n2c([H])nc(-c3c([H])c([H])c(F)c([H])c3[H])c2-c2nn3c([H])c(N([H])C(=O)C(C([H])([H])[H])(C([H])([H])[H])C([H])([H])[H])nc3c([H])c2[H])c([H])c1[H]


 36 40  0  0  0  0  0  0  0  0999 V2000
  -88.1898   31.8116   -2.4638 C   0  0  0  0  0  0  0  0  0  0  0  0
  -86.9999   32.2518   -1.9249 C   0  0  0  0  0  0  0  0  0  0  0  0
  -86.5480   33.2266   -2.7673 N   0  0  0  0  0  0  0  0  0  0  0  0
  -87.3839   33.3983   -3.7699 C   0  0  0  0  0  0  0  0  0  0  0  0
  -88.4048   32.5108   -3.5714 N   0  0  0  0  0  0  0  0  0  0  0  0
  -90.6691   26.6167   -1.1031 C   0  0  0  0  0  0  0  0  0  0  0  0
  -89.7419   27.1829   -1.9479 C   0  0  0  0  0  0  0  0  0  0  0  0
  -89.6722   28.5249   -1.6953 N   0  0  0  0  0  0  0  0  0  0  0  0
  -88.9410   29.4732   -2.2405 N   0  0  0  0  0  0  0  0  0  0  0  0
  -89.0047   30.7602   -1.8609 C   0  0  0  0  0  0  0  0  0  0  0  0
  -89.8917   31.0492   -0.8507 C   0  0  0  0  0  0  0  0  0  0  0  0
  -90.6750   30.0621   -0.2595 C   0  0  0  0  0  0  0  0  0  0  0  0
  -90.5420   28.7811   -0.7112 C   0  0  0  0  0  0  0  0  0  0  0  0
  -91.1400   27.6357   -0.3562 N   0  0  0  0  0  0  0  0  0  0  0  0
  -90.4798   24.3861   -0.0722 C   0  0  0  0  0  0  0  0  0  0  0  0
  -89.6150   24.8583    0.7419 O   0  0  0  0  0  0  0  0  0  0  0  0
  -91.0439   25.2615   -1.0335 N   0  0  0  0  0  0  0  0  0  0  0  0
  -91.7444   24.8885   -1.6955 H   0  0  0  0  0  0  0  0  0  0  0  0
  -89.5793   22.1672   -0.2721 C   0  0  0  0  0  0  0  0  0  0  0  0
  -90.8233   22.9682    0.0512 C   0  0  0  0  0  0  0  0  0  0  0  0
  -91.2281   22.6572    1.4604 C   0  0  0  0  0  0  0  0  0  0  0  0
  -91.8903   22.5518   -0.9372 C   0  0  0  0  0  0  0  0  0  0  0  0
  -86.2695   31.8503   -0.7389 C   0  0  0  0  0  0  0  0  0  0  0  0
  -86.4497   30.5907   -0.2193 C   0  0  0  0  0  0  0  0  0  0  0  0
  -85.7662   30.1576    0.9150 C   0  0  0  0  0  0  0  0  0  0  0  0
  -84.8774   30.9999    1.5522 C   0  0  0  0  0  0  0  0  0  0  0  0
  -84.2109   30.5736    2.6609 F   0  0  0  0  0  0  0  0  0  0  0  0
  -84.6917   32.2609    1.0388 C   0  0  0  0  0  0  0  0  0  0  0  0
  -85.3818   32.6755   -0.0927 C   0  0  0  0  0  0  0  0  0  0  0  0
  -89.5443   32.3810   -4.4653 C   0  0  0  0  0  0  0  0  0  0  0  0
  -90.0684   33.6930   -4.8828 C   0  0  0  0  0  0  0  0  0  0  0  0
  -90.3629   34.6920   -3.9917 C   0  0  0  0  0  0  0  0  0  0  0  0
  -90.8472   35.9184   -4.3605 C   0  0  0  0  0  0  0  0  0  0  0  0
  -91.0497   36.1605   -5.7056 C   0  0  0  0  0  0  0  0  0  0  0  0
  -90.7611   35.1701   -6.6268 C   0  0  0  0  0  0  0  0  0  0  0  0
  -90.2777   33.9513   -6.2345 C   0  0  0  0  0  0  0  0  0  0  0  0
 19 20  1  0  0  0
 20 21  1  0  0  0
 20 22  1  0  0  0
 20 15  1  0  0  0
 15 16  2  0  0  0
 15 17  1  0  0  0
 17  6  1  0  0  0
  6  7  2  0  0  0
  7  8  1  0  0  0
  8  9  1  0  0  0
  9 10  2  0  0  0
 10  1  1  0  0  0
  1  2  2  0  0  0
  2 23  1  0  0  0
 23 24  2  0  0  0
 24 25  1  0  0  0
 25 26  2  0  0  0
 26 27  1  0  0  0
 26 28  1  0  0  0
 28 29  2  0  0  0
  2  3  1  0  0  0
  3  4  2  0  0  0
  4  5  1  0  0  0
  5 30  1  0  0  0
 30 31  1  0  0  0
 31 32  2  0  0  0
 32 33  1  0  0  0
 33 34  2  0  0  0
 34 35  1  0  0  0
 35 36  2  0  0  0
 10 11  1  0  0  0
 11 12  2  0  0  0
 12 13  1  0  0  0
 13 14  2  0  0  0
 14  6  1  0  0  0
 13  8  1  0  0  0
  5  1  1  0  0  0
 36 31  1  0  0  0
 29 23  1  0  0  0
 17 18  1  0  0  0
M  END
> <minimizedAffinity>
-7.85739

> <CNNscore>
0.0451926962

> <CNNaffinity>
6.1679306030

> <CNN_VS>
0.2787454128

> <CNNaffinity_variance>
0.2792607248

$$$$
[H]c1nc(N([H])[H])c(OC([H])([H])C([H])([H])[H])c(N2C([H])([H])C([H])([H])N(C([H])(c3c([H])c([H])c(C(F)(F)F)c([H])c3[H])C([H])([H])N([H])[H])C([H])([H])C2([H])[H])n1


 33 35  0  0  0  0  0  0  0  0999 V2000
  -86.7192   30.8595   -0.8362 N   0  0  0  0  0  0  0  0  0  0  0  0
  -87.7254   30.8399   -1.8741 C   0  0  0  0  0  0  0  0  0  0  0  0
  -88.0041   29.3701   -2.0769 C   0  0  0  0  0  0  0  0  0  0  0  0
  -88.9731   28.9315   -1.0388 N   0  0  0  0  0  0  0  0  0  0  0  0
  -88.5257   29.5779    0.1984 C   0  0  0  0  0  0  0  0  0  0  0  0
  -87.0664   29.8650    0.2429 C   0  0  0  0  0  0  0  0  0  0  0  0
  -84.4066   31.3798   -0.0272 C   0  0  0  0  0  0  0  0  0  0  0  0
  -83.3844   32.3453    0.1005 C   0  0  0  0  0  0  0  0  0  0  0  0
  -82.1890   32.0463    0.7944 N   0  0  0  0  0  0  0  0  0  0  0  0
  -83.5412   33.5464   -0.4330 N   0  0  0  0  0  0  0  0  0  0  0  0
  -84.6861   33.8172   -1.0939 C   0  0  0  0  0  0  0  0  0  0  0  0
  -85.6532   32.9083   -1.2129 N   0  0  0  0  0  0  0  0  0  0  0  0
  -85.5634   31.6288   -0.6781 C   0  0  0  0  0  0  0  0  0  0  0  0
  -81.2701   32.3377    0.3655 H   0  0  0  0  0  0  0  0  0  0  0  0
  -82.1733   31.5514    1.7273 H   0  0  0  0  0  0  0  0  0  0  0  0
  -84.1156   30.1632    0.5701 O   0  0  0  0  0  0  0  0  0  0  0  0
  -83.7616   28.5990    2.3464 C   0  0  0  0  0  0  0  0  0  0  0  0
  -84.1621   30.0109    1.9815 C   0  0  0  0  0  0  0  0  0  0  0  0
  -88.8365   27.4980   -0.8727 C   0  0  0  0  0  0  0  0  0  0  0  0
  -89.1042   27.0658    0.5094 C   0  0  0  0  0  0  0  0  0  0  0  0
  -90.3659   27.2628    1.0381 C   0  0  0  0  0  0  0  0  0  0  0  0
  -90.6471   26.9789    2.3671 C   0  0  0  0  0  0  0  0  0  0  0  0
  -89.6592   26.4943    3.1953 C   0  0  0  0  0  0  0  0  0  0  0  0
  -88.3941   26.2816    2.7032 C   0  0  0  0  0  0  0  0  0  0  0  0
  -88.1545   26.5779    1.3583 C   0  0  0  0  0  0  0  0  0  0  0  0
  -89.9454   26.2480    4.6298 C   0  0  0  0  0  0  0  0  0  0  0  0
  -91.2988   25.8461    4.7039 F   0  0  0  0  0  0  0  0  0  0  0  0
  -89.8266   27.3704    5.4120 F   0  0  0  0  0  0  0  0  0  0  0  0
  -89.2259   25.1834    5.1182 F   0  0  0  0  0  0  0  0  0  0  0  0
  -89.9633   26.8529   -1.7102 C   0  0  0  0  0  0  0  0  0  0  0  0
  -89.6457   26.7249   -3.0877 N   0  0  0  0  0  0  0  0  0  0  0  0
  -90.0285   27.4935   -3.6499 H   0  0  0  0  0  0  0  0  0  0  0  0
  -89.7704   25.7803   -3.4675 H   0  0  0  0  0  0  0  0  0  0  0  0
 17 18  1  0  0  0
 18 16  1  0  0  0
 16  7  1  0  0  0
  7  8  2  0  0  0
  8  9  1  0  0  0
  8 10  1  0  0  0
 10 11  2  0  0  0
 11 12  1  0  0  0
 12 13  2  0  0  0
 13  1  1  0  0  0
  1  2  1  0  0  0
  2  3  1  0  0  0
  3  4  1  0  0  0
  4 19  1  0  0  0
 19 30  1  0  0  0
 30 31  1  0  0  0
 19 20  1  0  0  0
 20 21  2  0  0  0
 21 22  1  0  0  0
 22 23  2  0  0  0
 23 26  1  0  0  0
 26 27  1  0  0  0
 26 28  1  0  0  0
 26 29  1  0  0  0
 23 24  1  0  0  0
 24 25  2  0  0  0
  4  5  1  0  0  0
  5  6  1  0  0  0
 13  7  1  0  0  0
  6  1  1  0  0  0
 25 20  1  0  0  0
  9 14  1  0  0  0
  9 15  1  0  0  0
 31 32  1  0  0  0
 31 33  1  0  0  0
M  END
> <minimizedAffinity>
-7.95102

> <CNNscore>
0.9051614404

> <CNNaffinity>
7.0799493790

> <CNN_VS>
6.4084973335

> <CNNaffinity_variance>
0.0690798834

$$$$
[H]c1nc(N([H])[H])c(OC([H])([H])C([H])([H])[H])c(N2C([H])([H])C([H])([H])N(C([H])(c3c([H])c([H])c(C(F)(F)F)c([H])c3[H])C([H])([H])N([H])[H])C([H])([H])C2([H])[H])n1


 33 35  0  0  0  0  0  0  0  0999 V2000
  -87.7265   29.7178   -1.0756 N   0  0  0  0  0  0  0  0  0  0  0  0
  -87.7664   28.4947   -1.8455 C   0  0  0  0  0  0  0  0  0  0  0  0
  -89.0092   27.7971   -1.3477 C   0  0  0  0  0  0  0  0  0  0  0  0
  -90.1812   28.3636   -2.0649 N   0  0  0  0  0  0  0  0  0  0  0  0
  -89.9420   29.8092   -2.1047 C   0  0  0  0  0  0  0  0  0  0  0  0
  -89.1060   30.3199   -0.9848 C   0  0  0  0  0  0  0  0  0  0  0  0
  -85.7785   30.0056    0.4722 C   0  0  0  0  0  0  0  0  0  0  0  0
  -84.8347   30.8899    1.0385 C   0  0  0  0  0  0  0  0  0  0  0  0
  -83.9226   30.4420    2.0220 N   0  0  0  0  0  0  0  0  0  0  0  0
  -84.7986   32.1543    0.6488 N   0  0  0  0  0  0  0  0  0  0  0  0
  -85.6737   32.5673   -0.2917 C   0  0  0  0  0  0  0  0  0  0  0  0
  -86.5671   31.7351   -0.8252 N   0  0  0  0  0  0  0  0  0  0  0  0
  -86.6682   30.3966   -0.4655 C   0  0  0  0  0  0  0  0  0  0  0  0
  -82.9113   30.7324    1.9421 H   0  0  0  0  0  0  0  0  0  0  0  0
  -84.2081   29.8361    2.8387 H   0  0  0  0  0  0  0  0  0  0  0  0
  -85.7074   28.7106    0.9615 O   0  0  0  0  0  0  0  0  0  0  0  0
  -86.7456   26.6928    1.7215 C   0  0  0  0  0  0  0  0  0  0  0  0
  -86.7081   28.2006    1.8310 C   0  0  0  0  0  0  0  0  0  0  0  0
  -91.3614   28.1246   -1.2578 C   0  0  0  0  0  0  0  0  0  0  0  0
  -91.0355   27.9110    0.1623 C   0  0  0  0  0  0  0  0  0  0  0  0
  -90.6795   26.6433    0.5823 C   0  0  0  0  0  0  0  0  0  0  0  0
  -90.4697   26.3567    1.9239 C   0  0  0  0  0  0  0  0  0  0  0  0
  -90.6196   27.3425    2.8739 C   0  0  0  0  0  0  0  0  0  0  0  0
  -90.9682   28.6157    2.4928 C   0  0  0  0  0  0  0  0  0  0  0  0
  -91.1672   28.8620    1.1312 C   0  0  0  0  0  0  0  0  0  0  0  0
  -90.4538   27.0208    4.3124 C   0  0  0  0  0  0  0  0  0  0  0  0
  -89.3063   26.2009    4.4088 F   0  0  0  0  0  0  0  0  0  0  0  0
  -91.4974   26.2973    4.8352 F   0  0  0  0  0  0  0  0  0  0  0  0
  -90.1607   28.1399    5.0550 F   0  0  0  0  0  0  0  0  0  0  0  0
  -92.1773   29.4365   -1.2797 C   0  0  0  0  0  0  0  0  0  0  0  0
  -93.5690   29.2373   -1.4752 N   0  0  0  0  0  0  0  0  0  0  0  0
  -93.8468   29.3578   -2.4558 H   0  0  0  0  0  0  0  0  0  0  0  0
  -94.1665   29.6913   -0.7760 H   0  0  0  0  0  0  0  0  0  0  0  0
 17 18  1  0  0  0
 18 16  1  0  0  0
 16  7  1  0  0  0
  7  8  2  0  0  0
  8  9  1  0  0  0
  8 10  1  0  0  0
 10 11  2  0  0  0
 11 12  1  0  0  0
 12 13  2  0  0  0
 13  1  1  0  0  0
  1  2  1  0  0  0
  2  3  1  0  0  0
  3  4  1  0  0  0
  4 19  1  0  0  0
 19 30  1  0  0  0
 30 31  1  0  0  0
 19 20  1  0  0  0
 20 21  2  0  0  0
 21 22  1  0  0  0
 22 23  2  0  0  0
 23 26  1  0  0  0
 26 27  1  0  0  0
 26 28  1  0  0  0
 26 29  1  0  0  0
 23 24  1  0  0  0
 24 25  2  0  0  0
  4  5  1  0  0  0
  5  6  1  0  0  0
 13  7  1  0  0  0
  6  1  1  0  0  0
 25 20  1  0  0  0
  9 14  1  0  0  0
  9 15  1  0  0  0
 31 32  1  0  0  0
 31 33  1  0  0  0
M  END
> <minimizedAffinity>
-7.62542

> <CNNscore>
0.4285568297

> <CNNaffinity>
6.4660253525

> <CNN_VS>
2.7710592747

> <CNNaffinity_variance>
0.1594821364

$$$$
[H]c1nc(N([H])[H])c(OC([H])([H])C([H])([H])[H])c(N2C([H])([H])C([H])([H])N(C([H])(c3c([H])c([H])c(C(F)(F)F)c([H])c3[H])C([H])([H])N([H])[H])C([H])([H])C2([H])[H])n1


 33 35  0  0  0  0  0  0  0  0999 V2000
  -86.6064   29.4748    0.1750 N   0  0  0  0  0  0  0  0  0  0  0  0
  -86.5834   28.6287    1.3471 C   0  0  0  0  0  0  0  0  0  0  0  0
  -87.9982   28.1114    1.4448 C   0  0  0  0  0  0  0  0  0  0  0  0
  -88.1343   26.9491    0.5286 N   0  0  0  0  0  0  0  0  0  0  0  0
  -87.4250   27.3411   -0.6929 C   0  0  0  0  0  0  0  0  0  0  0  0
  -87.3863   28.8093   -0.9309 C   0  0  0  0  0  0  0  0  0  0  0  0
  -84.7628   31.1661    0.0576 C   0  0  0  0  0  0  0  0  0  0  0  0
  -84.4018   32.5130   -0.1637 C   0  0  0  0  0  0  0  0  0  0  0  0
  -83.0630   32.9391   -0.0031 N   0  0  0  0  0  0  0  0  0  0  0  0
  -85.3229   33.3920   -0.5253 N   0  0  0  0  0  0  0  0  0  0  0  0
  -86.5960   32.9709   -0.6764 C   0  0  0  0  0  0  0  0  0  0  0  0
  -86.9393   31.7009   -0.4652 N   0  0  0  0  0  0  0  0  0  0  0  0
  -86.0306   30.7221   -0.0811 C   0  0  0  0  0  0  0  0  0  0  0  0
  -82.6434   33.5719   -0.7358 H   0  0  0  0  0  0  0  0  0  0  0  0
  -82.4648   32.6597    0.8213 H   0  0  0  0  0  0  0  0  0  0  0  0
  -83.7056   30.3484    0.4253 O   0  0  0  0  0  0  0  0  0  0  0  0
  -82.9203   28.8571    2.1242 C   0  0  0  0  0  0  0  0  0  0  0  0
  -83.2612   30.2879    1.7730 C   0  0  0  0  0  0  0  0  0  0  0  0
  -89.5384   26.7940    0.2038 C   0  0  0  0  0  0  0  0  0  0  0  0
  -89.9997   25.4044    0.3600 C   0  0  0  0  0  0  0  0  0  0  0  0
  -90.6867   25.0538    1.5070 C   0  0  0  0  0  0  0  0  0  0  0  0
  -91.0489   23.7385    1.7613 C   0  0  0  0  0  0  0  0  0  0  0  0
  -90.7210   22.7449    0.8657 C   0  0  0  0  0  0  0  0  0  0  0  0
  -90.0424   23.0567   -0.2875 C   0  0  0  0  0  0  0  0  0  0  0  0
  -89.6994   24.3941   -0.5059 C   0  0  0  0  0  0  0  0  0  0  0  0
  -91.0558   21.3315    1.1672 C   0  0  0  0  0  0  0  0  0  0  0  0
  -90.7075   21.1184    2.5206 F   0  0  0  0  0  0  0  0  0  0  0  0
  -90.3312   20.4282    0.4292 F   0  0  0  0  0  0  0  0  0  0  0  0
  -92.4098   21.1030    1.1030 F   0  0  0  0  0  0  0  0  0  0  0  0
  -90.3230   27.5898    1.2708 C   0  0  0  0  0  0  0  0  0  0  0  0
  -91.4128   28.3292    0.7413 N   0  0  0  0  0  0  0  0  0  0  0  0
  -91.1708   29.3113    0.5676 H   0  0  0  0  0  0  0  0  0  0  0  0
  -92.3097   28.1596    1.2091 H   0  0  0  0  0  0  0  0  0  0  0  0
 17 18  1  0  0  0
 18 16  1  0  0  0
 16  7  1  0  0  0
  7  8  2  0  0  0
  8  9  1  0  0  0
  8 10  1  0  0  0
 10 11  2  0  0  0
 11 12  1  0  0  0
 12 13  2  0  0  0
 13  1  1  0  0  0
  1  2  1  0  0  0
  2  3  1  0  0  0
  3  4  1  0  0  0
  4 19  1  0  0  0
 19 30  1  0  0  0
 30 31  1  0  0  0
 19 20  1  0  0  0
 20 21  2  0  0  0
 21 22  1  0  0  0
 22 23  2  0  0  0
 23 26  1  0  0  0
 26 27  1  0  0  0
 26 28  1  0  0  0
 26 29  1  0  0  0
 23 24  1  0  0  0
 24 25  2  0  0  0
  4  5  1  0  0  0
  5  6  1  0  0  0
 13  7  1  0  0  0
  6  1  1  0  0  0
 25 20  1  0  0  0
  9 14  1  0  0  0
  9 15  1  0  0  0
 31 32  1  0  0  0
 31 33  1  0  0  0
M  END
> <minimizedAffinity>
-7.42432

> <CNNscore>
0.0704105943

> <CNNaffinity>
5.6062211990

> <CNN_VS>
0.3947373629

> <CNNaffinity_variance>
0.4984055161

$$$$
[H]c1nc(N([H])[H])c(OC([H])([H])C([H])([H])[H])c(N2C([H])([H])C([H])([H])N(C([H])(c3c([H])c([H])c(C(F)(F)F)c([H])c3[H])C([H])([H])N([H])[H])C([H])([H])C2([H])[H])n1


 33 35  0  0  0  0  0  0  0  0999 V2000
  -91.6292   26.7709   -2.5927 N   0  0  0  0  0  0  0  0  0  0  0  0
  -91.6943   27.5156   -1.3553 C   0  0  0  0  0  0  0  0  0  0  0  0
  -90.5499   26.9614   -0.5416 C   0  0  0  0  0  0  0  0  0  0  0  0
  -89.3013   27.6475   -0.9646 N   0  0  0  0  0  0  0  0  0  0  0  0
  -89.3838   27.7231   -2.4262 C   0  0  0  0  0  0  0  0  0  0  0  0
  -90.1971   26.6431   -3.0475 C   0  0  0  0  0  0  0  0  0  0  0  0
  -92.9573   24.9255   -3.6436 C   0  0  0  0  0  0  0  0  0  0  0  0
  -93.9528   24.5644   -4.5774 C   0  0  0  0  0  0  0  0  0  0  0  0
  -94.2641   23.2055   -4.8142 N   0  0  0  0  0  0  0  0  0  0  0  0
  -94.6053   25.5045   -5.2425 N   0  0  0  0  0  0  0  0  0  0  0  0
  -94.2990   26.7970   -5.0050 C   0  0  0  0  0  0  0  0  0  0  0  0
  -93.3579   27.1397   -4.1263 N   0  0  0  0  0  0  0  0  0  0  0  0
  -92.6287   26.2113   -3.3932 C   0  0  0  0  0  0  0  0  0  0  0  0
  -95.2790   22.9228   -4.8715 H   0  0  0  0  0  0  0  0  0  0  0  0
  -93.5271   22.4603   -4.9447 H   0  0  0  0  0  0  0  0  0  0  0  0
  -92.3548   23.8487   -3.0117 O   0  0  0  0  0  0  0  0  0  0  0  0
  -93.0184   22.1101   -1.5072 C   0  0  0  0  0  0  0  0  0  0  0  0
  -92.6166   23.5614   -1.6457 C   0  0  0  0  0  0  0  0  0  0  0  0
  -88.1805   26.7952   -0.6204 C   0  0  0  0  0  0  0  0  0  0  0  0
  -87.0762   27.5450    0.0013 C   0  0  0  0  0  0  0  0  0  0  0  0
  -86.6166   27.1496    1.2433 C   0  0  0  0  0  0  0  0  0  0  0  0
  -85.6564   27.8817    1.9274 C   0  0  0  0  0  0  0  0  0  0  0  0
  -85.1413   29.0337    1.3757 C   0  0  0  0  0  0  0  0  0  0  0  0
  -85.5711   29.4549    0.1406 C   0  0  0  0  0  0  0  0  0  0  0  0
  -86.5373   28.6866   -0.5154 C   0  0  0  0  0  0  0  0  0  0  0  0
  -84.1595   29.8472    2.1337 C   0  0  0  0  0  0  0  0  0  0  0  0
  -84.7661   30.1522    3.3737 F   0  0  0  0  0  0  0  0  0  0  0  0
  -83.8656   31.0478    1.5355 F   0  0  0  0  0  0  0  0  0  0  0  0
  -83.0343   29.1241    2.4510 F   0  0  0  0  0  0  0  0  0  0  0  0
  -88.6815   25.8434    0.4889 C   0  0  0  0  0  0  0  0  0  0  0  0
  -88.5696   24.4690    0.1522 N   0  0  0  0  0  0  0  0  0  0  0  0
  -89.4488   24.0828   -0.2100 H   0  0  0  0  0  0  0  0  0  0  0  0
  -88.0770   23.8989    0.8480 H   0  0  0  0  0  0  0  0  0  0  0  0
 17 18  1  0  0  0
 18 16  1  0  0  0
 16  7  1  0  0  0
  7  8  2  0  0  0
  8  9  1  0  0  0
  8 10  1  0  0  0
 10 11  2  0  0  0
 11 12  1  0  0  0
 12 13  2  0  0  0
 13  1  1  0  0  0
  1  2  1  0  0  0
  2  3  1  0  0  0
  3  4  1  0  0  0
  4 19  1  0  0  0
 19 30  1  0  0  0
 30 31  1  0  0  0
 19 20  1  0  0  0
 20 21  2  0  0  0
 21 22  1  0  0  0
 22 23  2  0  0  0
 23 26  1  0  0  0
 26 27  1  0  0  0
 26 28  1  0  0  0
 26 29  1  0  0  0
 23 24  1  0  0  0
 24 25  2  0  0  0
  4  5  1  0  0  0
  5  6  1  0  0  0
 13  7  1  0  0  0
  6  1  1  0  0  0
 25 20  1  0  0  0
  9 14  1  0  0  0
  9 15  1  0  0  0
 31 32  1  0  0  0
 31 33  1  0  0  0
M  END
> <minimizedAffinity>
-7.28491

> <CNNscore>
0.0682652965

> <CNNaffinity>
5.0606880188

> <CNN_VS>
0.3454693556

> <CNNaffinity_variance>
0.4229846895

$$$$
[H]c1nc(N([H])[H])c(OC([H])([H])C([H])([H])[H])c(N2C([H])([H])C([H])([H])N(C([H])(c3c([H])c([H])c(C(F)(F)F)c([H])c3[H])C([H])([H])N([H])[H])C([H])([H])C2([H])[H])n1


 33 35  0  0  0  0  0  0  0  0999 V2000
  -88.6280   34.0834   -4.8613 N   0  0  0  0  0  0  0  0  0  0  0  0
  -87.4097   34.4663   -4.1834 C   0  0  0  0  0  0  0  0  0  0  0  0
  -87.5597   33.8641   -2.8072 C   0  0  0  0  0  0  0  0  0  0  0  0
  -87.1504   32.4370   -2.8753 N   0  0  0  0  0  0  0  0  0  0  0  0
  -87.7317   31.9323   -4.1227 C   0  0  0  0  0  0  0  0  0  0  0  0
  -88.9642   32.6460   -4.5535 C   0  0  0  0  0  0  0  0  0  0  0  0
  -89.6768   36.1137   -5.8868 C   0  0  0  0  0  0  0  0  0  0  0  0
  -90.6636   36.6275   -6.7560 C   0  0  0  0  0  0  0  0  0  0  0  0
  -90.8500   38.0224   -6.8951 N   0  0  0  0  0  0  0  0  0  0  0  0
  -91.4267   35.7990   -7.4510 N   0  0  0  0  0  0  0  0  0  0  0  0
  -91.2364   34.4705   -7.3096 C   0  0  0  0  0  0  0  0  0  0  0  0
  -90.3077   33.9836   -6.4876 N   0  0  0  0  0  0  0  0  0  0  0  0
  -89.4716   34.7888   -5.7236 C   0  0  0  0  0  0  0  0  0  0  0  0
  -90.9699   38.4213   -7.8645 H   0  0  0  0  0  0  0  0  0  0  0  0
  -90.8830   38.6837   -6.0722 H   0  0  0  0  0  0  0  0  0  0  0  0
  -88.9433   37.0851   -5.2236 O   0  0  0  0  0  0  0  0  0  0  0  0
  -88.0508   37.9694   -3.1868 C   0  0  0  0  0  0  0  0  0  0  0  0
  -89.2919   37.4958   -3.9094 C   0  0  0  0  0  0  0  0  0  0  0  0
  -87.7758   31.7362   -1.7713 C   0  0  0  0  0  0  0  0  0  0  0  0
  -86.7893   31.1411   -0.8542 C   0  0  0  0  0  0  0  0  0  0  0  0
  -86.7833   29.7703   -0.6780 C   0  0  0  0  0  0  0  0  0  0  0  0
  -85.9536   29.1631    0.2541 C   0  0  0  0  0  0  0  0  0  0  0  0
  -85.1140   29.9265    1.0344 C   0  0  0  0  0  0  0  0  0  0  0  0
  -85.0896   31.2920    0.8838 C   0  0  0  0  0  0  0  0  0  0  0  0
  -85.9391   31.8625   -0.0684 C   0  0  0  0  0  0  0  0  0  0  0  0
  -84.2717   29.2821    2.0716 C   0  0  0  0  0  0  0  0  0  0  0  0
  -84.8679   29.5871    3.3166 F   0  0  0  0  0  0  0  0  0  0  0  0
  -82.9906   29.7742    2.1196 F   0  0  0  0  0  0  0  0  0  0  0  0
  -84.3093   27.9110    1.9801 F   0  0  0  0  0  0  0  0  0  0  0  0
  -88.4982   32.8098   -0.9269 C   0  0  0  0  0  0  0  0  0  0  0  0
  -89.7691   32.3966   -0.4485 N   0  0  0  0  0  0  0  0  0  0  0  0
  -90.5369   32.7269   -1.0442 H   0  0  0  0  0  0  0  0  0  0  0  0
  -89.9002   32.5078    0.5626 H   0  0  0  0  0  0  0  0  0  0  0  0
 17 18  1  0  0  0
 18 16  1  0  0  0
 16  7  1  0  0  0
  7  8  2  0  0  0
  8  9  1  0  0  0
  8 10  1  0  0  0
 10 11  2  0  0  0
 11 12  1  0  0  0
 12 13  2  0  0  0
 13  1  1  0  0  0
  1  2  1  0  0  0
  2  3  1  0  0  0
  3  4  1  0  0  0
  4 19  1  0  0  0
 19 30  1  0  0  0
 30 31  1  0  0  0
 19 20  1  0  0  0
 20 21  2  0  0  0
 21 22  1  0  0  0
 22 23  2  0  0  0
 23 26  1  0  0  0
 26 27  1  0  0  0
 26 28  1  0  0  0
 26 29  1  0  0  0
 23 24  1  0  0  0
 24 25  2  0  0  0
  4  5  1  0  0  0
  5  6  1  0  0  0
 13  7  1  0  0  0
  6  1  1  0  0  0
 25 20  1  0  0  0
  9 14  1  0  0  0
  9 15  1  0  0  0
 31 32  1  0  0  0
 31 33  1  0  0  0
M  END
> <minimizedAffinity>
-7.71129

> <CNNscore>
0.0636066943

> <CNNaffinity>
5.1116075516

> <CNN_VS>
0.3251324594

> <CNNaffinity_variance>
0.3785967529

$$$$
[H]c1nc(N([H])[H])c(OC([H])([H])C([H])([H])[H])c(N2C([H])([H])C([H])([H])N(C([H])(c3c([H])c([H])c(C(F)(F)F)c([H])c3[H])C([H])([H])N([H])[H])C([H])([H])C2([H])[H])n1


 33 35  0  0  0  0  0  0  0  0999 V2000
  -87.3773   29.4564   -0.6958 N   0  0  0  0  0  0  0  0  0  0  0  0
  -87.3092   28.3394   -1.6112 C   0  0  0  0  0  0  0  0  0  0  0  0
  -87.7269   27.1584   -0.7688 C   0  0  0  0  0  0  0  0  0  0  0  0
  -89.2120   27.1173   -0.7266 N   0  0  0  0  0  0  0  0  0  0  0  0
  -89.6274   28.5120   -0.5509 C   0  0  0  0  0  0  0  0  0  0  0  0
  -88.6254   29.3635    0.1453 C   0  0  0  0  0  0  0  0  0  0  0  0
  -85.3753   30.6779    0.1836 C   0  0  0  0  0  0  0  0  0  0  0  0
  -84.7172   31.9171    0.3411 C   0  0  0  0  0  0  0  0  0  0  0  0
  -83.5102   32.0076    1.0723 N   0  0  0  0  0  0  0  0  0  0  0  0
  -85.2315   33.0104   -0.1992 N   0  0  0  0  0  0  0  0  0  0  0  0
  -86.3828   32.9087   -0.8957 C   0  0  0  0  0  0  0  0  0  0  0  0
  -87.0069   31.7407   -1.0430 N   0  0  0  0  0  0  0  0  0  0  0  0
  -86.5312   30.5518   -0.5034 C   0  0  0  0  0  0  0  0  0  0  0  0
  -82.7191   32.5793    0.6716 H   0  0  0  0  0  0  0  0  0  0  0  0
  -83.3660   31.5357    2.0062 H   0  0  0  0  0  0  0  0  0  0  0  0
  -84.7308   29.6119    0.7919 O   0  0  0  0  0  0  0  0  0  0  0  0
  -85.0904   27.5927    2.0249 C   0  0  0  0  0  0  0  0  0  0  0  0
  -85.1772   29.1024    2.0402 C   0  0  0  0  0  0  0  0  0  0  0  0
  -89.6084   26.3771    0.4550 C   0  0  0  0  0  0  0  0  0  0  0  0
  -90.3589   25.1541    0.1247 C   0  0  0  0  0  0  0  0  0  0  0  0
  -91.7394   25.1810    0.1852 C   0  0  0  0  0  0  0  0  0  0  0  0
  -92.4957   24.0332   -0.0064 C   0  0  0  0  0  0  0  0  0  0  0  0
  -91.8754   22.8297   -0.2582 C   0  0  0  0  0  0  0  0  0  0  0  0
  -90.5048   22.7657   -0.3301 C   0  0  0  0  0  0  0  0  0  0  0  0
  -89.7814   23.9457   -0.1339 C   0  0  0  0  0  0  0  0  0  0  0  0
  -92.6817   21.5931   -0.4031 C   0  0  0  0  0  0  0  0  0  0  0  0
  -93.8117   21.7529    0.4312 F   0  0  0  0  0  0  0  0  0  0  0  0
  -92.0325   20.4627    0.0287 F   0  0  0  0  0  0  0  0  0  0  0  0
  -93.1880   21.4601   -1.6742 F   0  0  0  0  0  0  0  0  0  0  0  0
  -88.3037   25.8715    1.1105 C   0  0  0  0  0  0  0  0  0  0  0  0
  -88.3377   25.8860    2.5294 N   0  0  0  0  0  0  0  0  0  0  0  0
  -87.8978   26.7261    2.9220 H   0  0  0  0  0  0  0  0  0  0  0  0
  -88.0862   24.9949    2.9705 H   0  0  0  0  0  0  0  0  0  0  0  0
 17 18  1  0  0  0
 18 16  1  0  0  0
 16  7  1  0  0  0
  7  8  2  0  0  0
  8  9  1  0  0  0
  8 10  1  0  0  0
 10 11  2  0  0  0
 11 12  1  0  0  0
 12 13  2  0  0  0
 13  1  1  0  0  0
  1  2  1  0  0  0
  2  3  1  0  0  0
  3  4  1  0  0  0
  4 19  1  0  0  0
 19 30  1  0  0  0
 30 31  1  0  0  0
 19 20  1  0  0  0
 20 21  2  0  0  0
 21 22  1  0  0  0
 22 23  2  0  0  0
 23 26  1  0  0  0
 26 27  1  0  0  0
 26 28  1  0  0  0
 26 29  1  0  0  0
 23 24  1  0  0  0
 24 25  2  0  0  0
  4  5  1  0  0  0
  5  6  1  0  0  0
 13  7  1  0  0  0
  6  1  1  0  0  0
 25 20  1  0  0  0
  9 14  1  0  0  0
  9 15  1  0  0  0
 31 32  1  0  0  0
 31 33  1  0  0  0
M  END
> <minimizedAffinity>
-6.49127

> <CNNscore>
0.0604530685

> <CNNaffinity>
5.5643744469

> <CNN_VS>
0.3363835216

> <CNNaffinity_variance>
0.3380956054

$$$$
[H]c1nc(N([H])[H])c(OC([H])([H])C([H])([H])[H])c(N2C([H])([H])C([H])([H])N(C([H])(c3c([H])c([H])c(C(F)(F)F)c([H])c3[H])C([H])([H])N([H])[H])C([H])([H])C2([H])[H])n1


 33 35  0  0  0  0  0  0  0  0999 V2000
  -87.6598   30.5657   -0.5040 N   0  0  0  0  0  0  0  0  0  0  0  0
  -86.8176   31.7320   -0.6472 C   0  0  0  0  0  0  0  0  0  0  0  0
  -86.9941   32.1273   -2.0935 C   0  0  0  0  0  0  0  0  0  0  0  0
  -88.2387   32.9314   -2.2088 N   0  0  0  0  0  0  0  0  0  0  0  0
  -89.2169   32.2442   -1.3607 C   0  0  0  0  0  0  0  0  0  0  0  0
  -88.9742   30.7840   -1.2102 C   0  0  0  0  0  0  0  0  0  0  0  0
  -86.3903   28.8598    0.8196 C   0  0  0  0  0  0  0  0  0  0  0  0
  -86.3636   27.5529    1.3533 C   0  0  0  0  0  0  0  0  0  0  0  0
  -85.2171   27.0687    2.0246 N   0  0  0  0  0  0  0  0  0  0  0  0
  -87.4209   26.7668    1.2264 N   0  0  0  0  0  0  0  0  0  0  0  0
  -88.5086   27.2428    0.5849 C   0  0  0  0  0  0  0  0  0  0  0  0
  -88.5346   28.4747    0.0780 N   0  0  0  0  0  0  0  0  0  0  0  0
  -87.4642   29.3563    0.1684 C   0  0  0  0  0  0  0  0  0  0  0  0
  -85.3468   26.5440    2.9308 H   0  0  0  0  0  0  0  0  0  0  0  0
  -84.2358   27.2009    1.6569 H   0  0  0  0  0  0  0  0  0  0  0  0
  -85.2242   29.5804    1.0251 O   0  0  0  0  0  0  0  0  0  0  0  0
  -84.0152   31.4609    1.8791 C   0  0  0  0  0  0  0  0  0  0  0  0
  -85.0709   30.4161    2.1632 C   0  0  0  0  0  0  0  0  0  0  0  0
  -88.6992   32.8537   -3.5811 C   0  0  0  0  0  0  0  0  0  0  0  0
  -88.4663   34.1047   -4.3221 C   0  0  0  0  0  0  0  0  0  0  0  0
  -89.2823   34.4064   -5.3961 C   0  0  0  0  0  0  0  0  0  0  0  0
  -89.0432   35.5124   -6.1996 C   0  0  0  0  0  0  0  0  0  0  0  0
  -87.9710   36.3371   -5.9408 C   0  0  0  0  0  0  0  0  0  0  0  0
  -87.1409   36.0709   -4.8788 C   0  0  0  0  0  0  0  0  0  0  0  0
  -87.4193   34.9486   -4.0933 C   0  0  0  0  0  0  0  0  0  0  0  0
  -87.6817   37.4842   -6.8358 C   0  0  0  0  0  0  0  0  0  0  0  0
  -88.3709   37.2320   -8.0440 F   0  0  0  0  0  0  0  0  0  0  0  0
  -86.3527   37.6034   -7.1603 F   0  0  0  0  0  0  0  0  0  0  0  0
  -88.2162   38.6552   -6.3534 F   0  0  0  0  0  0  0  0  0  0  0  0
  -87.8025   31.8095   -4.2831 C   0  0  0  0  0  0  0  0  0  0  0  0
  -88.4939   31.0137   -5.2337 N   0  0  0  0  0  0  0  0  0  0  0  0
  -88.7891   30.1104   -4.8459 H   0  0  0  0  0  0  0  0  0  0  0  0
  -88.0607   30.9879   -6.1630 H   0  0  0  0  0  0  0  0  0  0  0  0
 17 18  1  0  0  0
 18 16  1  0  0  0
 16  7  1  0  0  0
  7  8  2  0  0  0
  8  9  1  0  0  0
  8 10  1  0  0  0
 10 11  2  0  0  0
 11 12  1  0  0  0
 12 13  2  0  0  0
 13  1  1  0  0  0
  1  2  1  0  0  0
  2  3  1  0  0  0
  3  4  1  0  0  0
  4 19  1  0  0  0
 19 30  1  0  0  0
 30 31  1  0  0  0
 19 20  1  0  0  0
 20 21  2  0  0  0
 21 22  1  0  0  0
 22 23  2  0  0  0
 23 26  1  0  0  0
 26 27  1  0  0  0
 26 28  1  0  0  0
 26 29  1  0  0  0
 23 24  1  0  0  0
 24 25  2  0  0  0
  4  5  1  0  0  0
  5  6  1  0  0  0
 13  7  1  0  0  0
  6  1  1  0  0  0
 25 20  1  0  0  0
  9 14  1  0  0  0
  9 15  1  0  0  0
 31 32  1  0  0  0
 31 33  1  0  0  0
M  END
> <minimizedAffinity>
-7.19482

> <CNNscore>
0.0585460328

> <CNNaffinity>
5.5246267319

> <CNN_VS>
0.3234449923

> <CNNaffinity_variance>
0.2410748005

$$$$
[H]c1nc(N([H])[H])c(OC([H])([H])C([H])([H])[H])c(N2C([H])([H])C([H])([H])N(C([H])(c3c([H])c([H])c(C(F)(F)F)c([H])c3[H])C([H])([H])N([H])[H])C([H])([H])C2([H])[H])n1


 33 35  0  0  0  0  0  0  0  0999 V2000
  -87.0941   29.8928   -0.9283 N   0  0  0  0  0  0  0  0  0  0  0  0
  -87.3844   29.3859   -2.2509 C   0  0  0  0  0  0  0  0  0  0  0  0
  -88.6814   30.0649   -2.6193 C   0  0  0  0  0  0  0  0  0  0  0  0
  -88.3668   31.4219   -3.1375 N   0  0  0  0  0  0  0  0  0  0  0  0
  -87.3273   31.9403   -2.2435 C   0  0  0  0  0  0  0  0  0  0  0  0
  -87.3685   31.3744   -0.8680 C   0  0  0  0  0  0  0  0  0  0  0  0
  -85.3726   29.2503    0.7737 C   0  0  0  0  0  0  0  0  0  0  0  0
  -85.0554   28.4581    1.8985 C   0  0  0  0  0  0  0  0  0  0  0  0
  -83.7516   28.4678    2.4460 N   0  0  0  0  0  0  0  0  0  0  0  0
  -85.9849   27.6948    2.4511 N   0  0  0  0  0  0  0  0  0  0  0  0
  -87.2250   27.6969    1.9192 C   0  0  0  0  0  0  0  0  0  0  0  0
  -87.5256   28.4416    0.8559 N   0  0  0  0  0  0  0  0  0  0  0  0
  -86.6042   29.2646    0.2198 C   0  0  0  0  0  0  0  0  0  0  0  0
  -83.6447   28.5269    3.4941 H   0  0  0  0  0  0  0  0  0  0  0  0
  -82.8784   28.4104    1.8546 H   0  0  0  0  0  0  0  0  0  0  0  0
  -84.3138   30.0064    0.2956 O   0  0  0  0  0  0  0  0  0  0  0  0
  -83.3440   32.1040   -0.3263 C   0  0  0  0  0  0  0  0  0  0  0  0
  -84.1143   31.3439    0.7300 C   0  0  0  0  0  0  0  0  0  0  0  0
  -89.5476   32.2481   -2.9819 C   0  0  0  0  0  0  0  0  0  0  0  0
  -89.4901   33.4686   -3.8036 C   0  0  0  0  0  0  0  0  0  0  0  0
  -89.4097   34.6955   -3.1722 C   0  0  0  0  0  0  0  0  0  0  0  0
  -89.4642   35.8835   -3.8875 C   0  0  0  0  0  0  0  0  0  0  0  0
  -89.6067   35.8608   -5.2571 C   0  0  0  0  0  0  0  0  0  0  0  0
  -89.6852   34.6595   -5.9193 C   0  0  0  0  0  0  0  0  0  0  0  0
  -89.6233   33.4868   -5.1610 C   0  0  0  0  0  0  0  0  0  0  0  0
  -89.7251   37.1311   -6.0139 C   0  0  0  0  0  0  0  0  0  0  0  0
  -91.0775   37.5305   -5.9150 F   0  0  0  0  0  0  0  0  0  0  0  0
  -89.4528   36.9976   -7.3532 F   0  0  0  0  0  0  0  0  0  0  0  0
  -89.0060   38.1444   -5.4258 F   0  0  0  0  0  0  0  0  0  0  0  0
  -90.7265   31.4377   -3.5658 C   0  0  0  0  0  0  0  0  0  0  0  0
  -91.9685   31.7040   -2.9323 N   0  0  0  0  0  0  0  0  0  0  0  0
  -92.1949   31.0112   -2.2097 H   0  0  0  0  0  0  0  0  0  0  0  0
  -92.7286   31.9543   -3.5738 H   0  0  0  0  0  0  0  0  0  0  0  0
 17 18  1  0  0  0
 18 16  1  0  0  0
 16  7  1  0  0  0
  7  8  2  0  0  0
  8  9  1  0  0  0
  8 10  1  0  0  0
 10 11  2  0  0  0
 11 12  1  0  0  0
 12 13  2  0  0  0
 13  1  1  0  0  0
  1  2  1  0  0  0
  2  3  1  0  0  0
  3  4  1  0  0  0
  4 19  1  0  0  0
 19 30  1  0  0  0
 30 31  1  0  0  0
 19 20  1  0  0  0
 20 21  2  0  0  0
 21 22  1  0  0  0
 22 23  2  0  0  0
 23 26  1  0  0  0
 26 27  1  0  0  0
 26 28  1  0  0  0
 26 29  1  0  0  0
 23 24  1  0  0  0
 24 25  2  0  0  0
  4  5  1  0  0  0
  5  6  1  0  0  0
 13  7  1  0  0  0
  6  1  1  0  0  0
 25 20  1  0  0  0
  9 14  1  0  0  0
  9 15  1  0  0  0
 31 32  1  0  0  0
 31 33  1  0  0  0
M  END
> <minimizedAffinity>
-6.54489

> <CNNscore>
0.0575801358

> <CNNaffinity>
5.5433945656

> <CNN_VS>
0.3191893995

> <CNNaffinity_variance>
0.1593834460

$$$$
[H]c1nc(N([H])[H])c(OC([H])([H])C([H])([H])[H])c(N2C([H])([H])C([H])([H])N(C([H])(c3c([H])c([H])c(C(F)(F)F)c([H])c3[H])C([H])([H])N([H])[H])C([H])([H])C2([H])[H])n1


 33 35  0  0  0  0  0  0  0  0999 V2000
  -88.2068   30.2487   -1.0544 N   0  0  0  0  0  0  0  0  0  0  0  0
  -89.5255   30.1709   -0.4668 C   0  0  0  0  0  0  0  0  0  0  0  0
  -90.2202   29.1074   -1.2825 C   0  0  0  0  0  0  0  0  0  0  0  0
  -89.8308   27.7779   -0.7443 N   0  0  0  0  0  0  0  0  0  0  0  0
  -88.3931   27.8805   -0.4774 C   0  0  0  0  0  0  0  0  0  0  0  0
  -87.6819   28.8638   -1.3382 C   0  0  0  0  0  0  0  0  0  0  0  0
  -86.3316   31.8711   -0.7009 C   0  0  0  0  0  0  0  0  0  0  0  0
  -85.6930   33.0561   -1.1267 C   0  0  0  0  0  0  0  0  0  0  0  0
  -84.5927   33.5825   -0.4111 N   0  0  0  0  0  0  0  0  0  0  0  0
  -86.1250   33.6866   -2.2073 N   0  0  0  0  0  0  0  0  0  0  0  0
  -87.1746   33.1718   -2.8813 C   0  0  0  0  0  0  0  0  0  0  0  0
  -87.7805   32.0552   -2.4794 N   0  0  0  0  0  0  0  0  0  0  0  0
  -87.3872   31.3400   -1.3548 C   0  0  0  0  0  0  0  0  0  0  0  0
  -83.7523   33.9186   -0.9532 H   0  0  0  0  0  0  0  0  0  0  0  0
  -84.5760   33.6625    0.6420 H   0  0  0  0  0  0  0  0  0  0  0  0
  -85.7794   31.3069    0.4385 O   0  0  0  0  0  0  0  0  0  0  0  0
  -83.7466   30.4772    1.3904 C   0  0  0  0  0  0  0  0  0  0  0  0
  -84.8207   30.2630    0.3477 C   0  0  0  0  0  0  0  0  0  0  0  0
  -90.0253   26.7940   -1.7909 C   0  0  0  0  0  0  0  0  0  0  0  0
  -90.3595   25.4639   -1.2547 C   0  0  0  0  0  0  0  0  0  0  0  0
  -91.2154   25.3757   -0.1732 C   0  0  0  0  0  0  0  0  0  0  0  0
  -91.4798   24.1614    0.4446 C   0  0  0  0  0  0  0  0  0  0  0  0
  -90.8816   23.0079   -0.0119 C   0  0  0  0  0  0  0  0  0  0  0  0
  -90.0285   23.0566   -1.0878 C   0  0  0  0  0  0  0  0  0  0  0  0
  -89.7922   24.2995   -1.6823 C   0  0  0  0  0  0  0  0  0  0  0  0
  -91.1181   21.7207    0.6863 C   0  0  0  0  0  0  0  0  0  0  0  0
  -92.3664   21.2410    0.2280 F   0  0  0  0  0  0  0  0  0  0  0  0
  -91.2241   21.8489    2.0494 F   0  0  0  0  0  0  0  0  0  0  0  0
  -90.2050   20.7630    0.3139 F   0  0  0  0  0  0  0  0  0  0  0  0
  -91.2860   27.2305   -2.5703 C   0  0  0  0  0  0  0  0  0  0  0  0
  -91.2490   26.8899   -3.9478 N   0  0  0  0  0  0  0  0  0  0  0  0
  -90.9374   27.6718   -4.5352 H   0  0  0  0  0  0  0  0  0  0  0  0
  -92.0694   26.3723   -4.2807 H   0  0  0  0  0  0  0  0  0  0  0  0
 17 18  1  0  0  0
 18 16  1  0  0  0
 16  7  1  0  0  0
  7  8  2  0  0  0
  8  9  1  0  0  0
  8 10  1  0  0  0
 10 11  2  0  0  0
 11 12  1  0  0  0
 12 13  2  0  0  0
 13  1  1  0  0  0
  1  2  1  0  0  0
  2  3  1  0  0  0
  3  4  1  0  0  0
  4 19  1  0  0  0
 19 30  1  0  0  0
 30 31  1  0  0  0
 19 20  1  0  0  0
 20 21  2  0  0  0
 21 22  1  0  0  0
 22 23  2  0  0  0
 23 26  1  0  0  0
 26 27  1  0  0  0
 26 28  1  0  0  0
 26 29  1  0  0  0
 23 24  1  0  0  0
 24 25  2  0  0  0
  4  5  1  0  0  0
  5  6  1  0  0  0
 13  7  1  0  0  0
  6  1  1  0  0  0
 25 20  1  0  0  0
  9 14  1  0  0  0
  9 15  1  0  0  0
 31 32  1  0  0  0
 31 33  1  0  0  0
M  END
> <minimizedAffinity>
-6.44845

> <CNNscore>
0.0499729589

> <CNNaffinity>
5.1754436493

> <CNN_VS>
0.2586322427

> <CNNaffinity_variance>
0.6176732779

$$$$
[H]OC(=O)[C@@]([H])(Oc1c(Br)c([H])c(-c2c([H])c([H])c(-c3c(C([H])([H])c4c([H])c([H])c([H])c([H])c4[H])oc4c([H])c([H])c([H])c([H])c34)c([H])c2[H])c([H])c1Br)C([H])([H])c1c([H])c([H])c([H])c([H])c1[H]


 43 48  0  0  0  0  0  0  0  0999 V2000
  -88.1224   32.8588   -3.1220 C   0  0  0  0  0  0  0  0  0  0  0  0
  -87.4439   33.3152   -4.2352 C   0  0  0  0  0  0  0  0  0  0  0  0
  -88.0508   34.2539   -5.0286 C   0  0  0  0  0  0  0  0  0  0  0  0
  -89.2978   34.7856   -4.8030 C   0  0  0  0  0  0  0  0  0  0  0  0
  -89.9527   34.2962   -3.6616 C   0  0  0  0  0  0  0  0  0  0  0  0
  -89.3736   33.3617   -2.8533 C   0  0  0  0  0  0  0  0  0  0  0  0
  -89.9591   35.7561   -5.6540 C   0  0  0  0  0  0  0  0  0  0  0  0
  -89.9406   37.1022   -5.6491 C   0  0  0  0  0  0  0  0  0  0  0  0
  -90.7477   37.5514   -6.6133 O   0  0  0  0  0  0  0  0  0  0  0  0
  -91.3030   36.5611   -7.2622 C   0  0  0  0  0  0  0  0  0  0  0  0
  -92.1893   36.5043   -8.3152 C   0  0  0  0  0  0  0  0  0  0  0  0
  -92.6256   35.2984   -8.8209 C   0  0  0  0  0  0  0  0  0  0  0  0
  -92.1418   34.1483   -8.2342 C   0  0  0  0  0  0  0  0  0  0  0  0
  -91.2460   34.1942   -7.1691 C   0  0  0  0  0  0  0  0  0  0  0  0
  -90.8390   35.3976   -6.6974 C   0  0  0  0  0  0  0  0  0  0  0  0
  -89.1973   38.0452   -4.7875 C   0  0  0  0  0  0  0  0  0  0  0  0
  -87.8540   38.3184   -5.3326 C   0  0  0  0  0  0  0  0  0  0  0  0
  -87.5771   38.9366   -6.5120 C   0  0  0  0  0  0  0  0  0  0  0  0
  -86.2579   39.1504   -6.9428 C   0  0  0  0  0  0  0  0  0  0  0  0
  -85.1933   38.7376   -6.1805 C   0  0  0  0  0  0  0  0  0  0  0  0
  -85.4504   38.1094   -4.9824 C   0  0  0  0  0  0  0  0  0  0  0  0
  -86.7530   37.9056   -4.5687 C   0  0  0  0  0  0  0  0  0  0  0  0
  -86.5090   29.8574   -0.5048 C   0  0  0  0  0  0  0  0  0  0  0  0
  -86.1823   31.2116   -0.3531 C   0  0  0  0  0  0  0  0  0  0  0  0
  -85.0133   31.6981    1.0650 Br  0  0  0  0  0  0  0  0  0  0  0  0
  -86.7013   32.1734   -1.1973 C   0  0  0  0  0  0  0  0  0  0  0  0
  -87.5605   31.8575   -2.2228 C   0  0  0  0  0  0  0  0  0  0  0  0
  -87.8919   30.5206   -2.3833 C   0  0  0  0  0  0  0  0  0  0  0  0
  -87.3604   29.5478   -1.5256 C   0  0  0  0  0  0  0  0  0  0  0  0
  -87.8387   27.7264   -1.9414 Br  0  0  0  0  0  0  0  0  0  0  0  0
  -85.9924   28.8980    0.3248 O   0  0  0  0  0  0  0  0  0  0  0  0
  -86.4518   28.5521    1.6240 C   0  0  0  0  0  0  0  0  0  0  0  0
  -84.5968   28.9174    3.1458 O   0  0  0  0  0  0  0  0  0  0  0  0
  -85.2474   28.1498    2.3832 C   0  0  0  0  0  0  0  0  0  0  0  0
  -84.7512   26.8544    2.2974 O   0  0  0  0  0  0  0  0  0  0  0  0
  -84.3196   26.4336    1.5164 H   0  0  0  0  0  0  0  0  0  0  0  0
  -87.4624   27.4174    1.6035 C   0  0  0  0  0  0  0  0  0  0  0  0
  -88.7972   27.7902    2.1075 C   0  0  0  0  0  0  0  0  0  0  0  0
  -89.0858   27.5979    3.4723 C   0  0  0  0  0  0  0  0  0  0  0  0
  -90.3249   27.9783    3.9496 C   0  0  0  0  0  0  0  0  0  0  0  0
  -91.2883   28.5404    3.1293 C   0  0  0  0  0  0  0  0  0  0  0  0
  -90.9582   28.7092    1.7968 C   0  0  0  0  0  0  0  0  0  0  0  0
  -89.7385   28.3455    1.2819 C   0  0  0  0  0  0  0  0  0  0  0  0
 33 34  2  0  0  0
 34 35  1  0  0  0
 34 32  1  0  0  0
 32 37  1  0  0  0
 37 38  1  0  0  0
 38 39  2  0  0  0
 39 40  1  0  0  0
 40 41  2  0  0  0
 41 42  1  0  0  0
 42 43  2  0  0  0
 32 31  1  0  0  0
 31 23  1  0  0  0
 23 24  2  0  0  0
 24 25  1  0  0  0
 24 26  1  0  0  0
 26 27  2  0  0  0
 27  1  1  0  0  0
  1  2  2  0  0  0
  2  3  1  0  0  0
  3  4  2  0  0  0
  4  7  1  0  0  0
  7  8  2  0  0  0
  8 16  1  0  0  0
 16 17  1  0  0  0
 17 18  2  0  0  0
 18 19  1  0  0  0
 19 20  2  0  0  0
 20 21  1  0  0  0
 21 22  2  0  0  0
  8  9  1  0  0  0
  9 10  1  0  0  0
 10 11  2  0  0  0
 11 12  1  0  0  0
 12 13  2  0  0  0
 13 14  1  0  0  0
 14 15  2  0  0  0
  4  5  1  0  0  0
  5  6  2  0  0  0
 27 28  1  0  0  0
 28 29  2  0  0  0
 29 30  1  0  0  0
 43 38  1  0  0  0
 29 23  1  0  0  0
  6  1  1  0  0  0
 15  7  1  0  0  0
 22 17  1  0  0  0
 15 10  1  0  0  0
 35 36  1  0  0  0
M  END
> <minimizedAffinity>
-8.69707

> <CNNscore>
0.1900057942

> <CNNaffinity>
6.9678926468

> <CNN_VS>
1.3239399195

> <CNNaffinity_variance>
0.2309586257

$$$$
[H]OC(=O)[C@@]([H])(Oc1c(Br)c([H])c(-c2c([H])c([H])c(-c3c(C([H])([H])c4c([H])c([H])c([H])c([H])c4[H])oc4c([H])c([H])c([H])c([H])c34)c([H])c2[H])c([H])c1Br)C([H])([H])c1c([H])c([H])c([H])c([H])c1[H]


 43 48  0  0  0  0  0  0  0  0999 V2000
  -90.0352   30.1754   -1.7835 C   0  0  0  0  0  0  0  0  0  0  0  0
  -89.9932   30.9864   -0.6661 C   0  0  0  0  0  0  0  0  0  0  0  0
  -88.7681   31.3693   -0.1847 C   0  0  0  0  0  0  0  0  0  0  0  0
  -87.5607   31.0067   -0.7317 C   0  0  0  0  0  0  0  0  0  0  0  0
  -87.6476   30.1837   -1.8659 C   0  0  0  0  0  0  0  0  0  0  0  0
  -88.8528   29.7863   -2.3676 C   0  0  0  0  0  0  0  0  0  0  0  0
  -86.2605   31.3825   -0.2107 C   0  0  0  0  0  0  0  0  0  0  0  0
  -85.5569   32.5254   -0.3154 C   0  0  0  0  0  0  0  0  0  0  0  0
  -84.3858   32.3734    0.3079 O   0  0  0  0  0  0  0  0  0  0  0  0
  -84.2793   31.1771    0.8251 C   0  0  0  0  0  0  0  0  0  0  0  0
  -83.2893   30.5480    1.5473 C   0  0  0  0  0  0  0  0  0  0  0  0
  -83.4356   29.2484    1.9834 C   0  0  0  0  0  0  0  0  0  0  0  0
  -84.6112   28.5993    1.6708 C   0  0  0  0  0  0  0  0  0  0  0  0
  -85.6182   29.2257    0.9410 C   0  0  0  0  0  0  0  0  0  0  0  0
  -85.4398   30.5039    0.5281 C   0  0  0  0  0  0  0  0  0  0  0  0
  -85.9018   33.8042   -0.9711 C   0  0  0  0  0  0  0  0  0  0  0  0
  -86.8058   33.5879   -2.1167 C   0  0  0  0  0  0  0  0  0  0  0  0
  -86.4782   32.9962   -3.2968 C   0  0  0  0  0  0  0  0  0  0  0  0
  -87.4162   32.8370   -4.3294 C   0  0  0  0  0  0  0  0  0  0  0  0
  -88.7078   33.2783   -4.1809 C   0  0  0  0  0  0  0  0  0  0  0  0
  -89.0614   33.8804   -2.9941 C   0  0  0  0  0  0  0  0  0  0  0  0
  -88.1297   34.0306   -1.9848 C   0  0  0  0  0  0  0  0  0  0  0  0
  -93.6959   28.7620   -3.5336 C   0  0  0  0  0  0  0  0  0  0  0  0
  -93.6762   29.8686   -2.6740 C   0  0  0  0  0  0  0  0  0  0  0  0
  -95.3202   30.7523   -2.3129 Br  0  0  0  0  0  0  0  0  0  0  0  0
  -92.4980   30.3190   -2.1119 C   0  0  0  0  0  0  0  0  0  0  0  0
  -91.2904   29.7124   -2.3639 C   0  0  0  0  0  0  0  0  0  0  0  0
  -91.2965   28.6163   -3.2133 C   0  0  0  0  0  0  0  0  0  0  0  0
  -92.4953   28.1613   -3.7793 C   0  0  0  0  0  0  0  0  0  0  0  0
  -92.3503   26.5687   -4.8572 Br  0  0  0  0  0  0  0  0  0  0  0  0
  -94.8618   28.3063   -4.0889 O   0  0  0  0  0  0  0  0  0  0  0  0
  -95.4194   28.6846   -5.3399 C   0  0  0  0  0  0  0  0  0  0  0  0
  -95.9721   26.3227   -5.4175 O   0  0  0  0  0  0  0  0  0  0  0  0
  -95.7918   27.4211   -6.0134 C   0  0  0  0  0  0  0  0  0  0  0  0
  -95.9744   27.3749   -7.3904 O   0  0  0  0  0  0  0  0  0  0  0  0
  -95.2800   27.4646   -8.0855 H   0  0  0  0  0  0  0  0  0  0  0  0
  -94.4439   29.4701   -6.2006 C   0  0  0  0  0  0  0  0  0  0  0  0
  -94.9907   30.7325   -6.7318 C   0  0  0  0  0  0  0  0  0  0  0  0
  -95.4008   31.7294   -5.8258 C   0  0  0  0  0  0  0  0  0  0  0  0
  -95.8818   32.9241   -6.3250 C   0  0  0  0  0  0  0  0  0  0  0  0
  -95.9728   33.1697   -7.6845 C   0  0  0  0  0  0  0  0  0  0  0  0
  -95.5580   32.1606   -8.5346 C   0  0  0  0  0  0  0  0  0  0  0  0
  -95.0733   30.9590   -8.0802 C   0  0  0  0  0  0  0  0  0  0  0  0
 33 34  2  0  0  0
 34 35  1  0  0  0
 34 32  1  0  0  0
 32 37  1  0  0  0
 37 38  1  0  0  0
 38 39  2  0  0  0
 39 40  1  0  0  0
 40 41  2  0  0  0
 41 42  1  0  0  0
 42 43  2  0  0  0
 32 31  1  0  0  0
 31 23  1  0  0  0
 23 24  2  0  0  0
 24 25  1  0  0  0
 24 26  1  0  0  0
 26 27  2  0  0  0
 27  1  1  0  0  0
  1  2  2  0  0  0
  2  3  1  0  0  0
  3  4  2  0  0  0
  4  7  1  0  0  0
  7  8  2  0  0  0
  8 16  1  0  0  0
 16 17  1  0  0  0
 17 18  2  0  0  0
 18 19  1  0  0  0
 19 20  2  0  0  0
 20 21  1  0  0  0
 21 22  2  0  0  0
  8  9  1  0  0  0
  9 10  1  0  0  0
 10 11  2  0  0  0
 11 12  1  0  0  0
 12 13  2  0  0  0
 13 14  1  0  0  0
 14 15  2  0  0  0
  4  5  1  0  0  0
  5  6  2  0  0  0
 27 28  1  0  0  0
 28 29  2  0  0  0
 29 30  1  0  0  0
 43 38  1  0  0  0
 29 23  1  0  0  0
  6  1  1  0  0  0
 15  7  1  0  0  0
 22 17  1  0  0  0
 15 10  1  0  0  0
 35 36  1  0  0  0
M  END
> <minimizedAffinity>
-7.94366

> <CNNscore>
0.1280972064

> <CNNaffinity>
6.8019270897

> <CNN_VS>
0.8713078499

> <CNNaffinity_variance>
0.3945997357

$$$$
[H]OC(=O)[C@@]([H])(Oc1c(Br)c([H])c(-c2c([H])c([H])c(-c3c(C([H])([H])c4c([H])c([H])c([H])c([H])c4[H])oc4c([H])c([H])c([H])c([H])c34)c([H])c2[H])c([H])c1Br)C([H])([H])c1c([H])c([H])c([H])c([H])c1[H]


 43 48  0  0  0  0  0  0  0  0999 V2000
  -88.4106   32.6167   -2.9100 C   0  0  0  0  0  0  0  0  0  0  0  0
  -88.2575   32.9165   -1.5703 C   0  0  0  0  0  0  0  0  0  0  0  0
  -88.0983   31.8819   -0.6852 C   0  0  0  0  0  0  0  0  0  0  0  0
  -88.0784   30.5512   -1.0276 C   0  0  0  0  0  0  0  0  0  0  0  0
  -88.2360   30.2898   -2.3980 C   0  0  0  0  0  0  0  0  0  0  0  0
  -88.3966   31.2990   -3.3023 C   0  0  0  0  0  0  0  0  0  0  0  0
  -87.9410   29.4499   -0.0940 C   0  0  0  0  0  0  0  0  0  0  0  0
  -86.8642   28.7403    0.2921 C   0  0  0  0  0  0  0  0  0  0  0  0
  -87.2522   27.7942    1.1508 O   0  0  0  0  0  0  0  0  0  0  0  0
  -88.5430   27.8437    1.3546 C   0  0  0  0  0  0  0  0  0  0  0  0
  -89.4026   27.1014    2.1339 C   0  0  0  0  0  0  0  0  0  0  0  0
  -90.7542   27.3710    2.1672 C   0  0  0  0  0  0  0  0  0  0  0  0
  -91.2160   28.4129    1.3912 C   0  0  0  0  0  0  0  0  0  0  0  0
  -90.3558   29.1694    0.5995 C   0  0  0  0  0  0  0  0  0  0  0  0
  -89.0330   28.8757    0.5910 C   0  0  0  0  0  0  0  0  0  0  0  0
  -85.4418   28.8798   -0.0841 C   0  0  0  0  0  0  0  0  0  0  0  0
  -84.8043   29.9908    0.6478 C   0  0  0  0  0  0  0  0  0  0  0  0
  -85.0914   30.3846    1.9176 C   0  0  0  0  0  0  0  0  0  0  0  0
  -84.4242   31.4592    2.5270 C   0  0  0  0  0  0  0  0  0  0  0  0
  -83.4507   32.1556    1.8543 C   0  0  0  0  0  0  0  0  0  0  0  0
  -83.1438   31.7740    0.5674 C   0  0  0  0  0  0  0  0  0  0  0  0
  -83.8066   30.7141   -0.0214 C   0  0  0  0  0  0  0  0  0  0  0  0
  -88.8922   35.6985   -5.8650 C   0  0  0  0  0  0  0  0  0  0  0  0
  -89.7352   34.5795   -5.8318 C   0  0  0  0  0  0  0  0  0  0  0  0
  -91.1243   34.4653   -7.1245 Br  0  0  0  0  0  0  0  0  0  0  0  0
  -89.5763   33.5901   -4.8817 C   0  0  0  0  0  0  0  0  0  0  0  0
  -88.5919   33.6490   -3.9240 C   0  0  0  0  0  0  0  0  0  0  0  0
  -87.7512   34.7516   -3.9460 C   0  0  0  0  0  0  0  0  0  0  0  0
  -87.9148   35.7520   -4.9140 C   0  0  0  0  0  0  0  0  0  0  0  0
  -86.6054   37.1674   -4.8719 Br  0  0  0  0  0  0  0  0  0  0  0  0
  -89.0402   36.6798   -6.8087 O   0  0  0  0  0  0  0  0  0  0  0  0
  -89.8734   37.8277   -6.7266 C   0  0  0  0  0  0  0  0  0  0  0  0
  -88.1841   39.1185   -7.8971 O   0  0  0  0  0  0  0  0  0  0  0  0
  -89.3865   38.7544   -7.7720 C   0  0  0  0  0  0  0  0  0  0  0  0
  -90.2594   39.2909   -8.7110 O   0  0  0  0  0  0  0  0  0  0  0  0
  -90.9734   39.9523   -8.5493 H   0  0  0  0  0  0  0  0  0  0  0  0
  -89.8137   38.4966   -5.3634 C   0  0  0  0  0  0  0  0  0  0  0  0
  -91.0882   38.4681   -4.6220 C   0  0  0  0  0  0  0  0  0  0  0  0
  -91.5800   37.2305   -4.1644 C   0  0  0  0  0  0  0  0  0  0  0  0
  -92.7568   37.2092   -3.4415 C   0  0  0  0  0  0  0  0  0  0  0  0
  -93.4649   38.3639   -3.1548 C   0  0  0  0  0  0  0  0  0  0  0  0
  -92.9420   39.5548   -3.6253 C   0  0  0  0  0  0  0  0  0  0  0  0
  -91.7757   39.6203   -4.3467 C   0  0  0  0  0  0  0  0  0  0  0  0
 33 34  2  0  0  0
 34 35  1  0  0  0
 34 32  1  0  0  0
 32 37  1  0  0  0
 37 38  1  0  0  0
 38 39  2  0  0  0
 39 40  1  0  0  0
 40 41  2  0  0  0
 41 42  1  0  0  0
 42 43  2  0  0  0
 32 31  1  0  0  0
 31 23  1  0  0  0
 23 24  2  0  0  0
 24 25  1  0  0  0
 24 26  1  0  0  0
 26 27  2  0  0  0
 27  1  1  0  0  0
  1  2  2  0  0  0
  2  3  1  0  0  0
  3  4  2  0  0  0
  4  7  1  0  0  0
  7  8  2  0  0  0
  8 16  1  0  0  0
 16 17  1  0  0  0
 17 18  2  0  0  0
 18 19  1  0  0  0
 19 20  2  0  0  0
 20 21  1  0  0  0
 21 22  2  0  0  0
  8  9  1  0  0  0
  9 10  1  0  0  0
 10 11  2  0  0  0
 11 12  1  0  0  0
 12 13  2  0  0  0
 13 14  1  0  0  0
 14 15  2  0  0  0
  4  5  1  0  0  0
  5  6  2  0  0  0
 27 28  1  0  0  0
 28 29  2  0  0  0
 29 30  1  0  0  0
 43 38  1  0  0  0
 29 23  1  0  0  0
  6  1  1  0  0  0
 15  7  1  0  0  0
 22 17  1  0  0  0
 15 10  1  0  0  0
 35 36  1  0  0  0
M  END
> <minimizedAffinity>
-8.87756

> <CNNscore>
0.1161600500

> <CNNaffinity>
6.7856826782

> <CNN_VS>
0.7882252336

> <CNNaffinity_variance>
0.3368267119

$$$$
[H]OC(=O)[C@@]([H])(Oc1c(Br)c([H])c(-c2c([H])c([H])c(-c3c(C([H])([H])c4c([H])c([H])c([H])c([H])c4[H])oc4c([H])c([H])c([H])c([H])c34)c([H])c2[H])c([H])c1Br)C([H])([H])c1c([H])c([H])c([H])c([H])c1[H]


 43 48  0  0  0  0  0  0  0  0999 V2000
  -88.1685   32.6618   -2.9121 C   0  0  0  0  0  0  0  0  0  0  0  0
  -87.7227   32.8589   -4.2045 C   0  0  0  0  0  0  0  0  0  0  0  0
  -88.3464   33.8087   -4.9711 C   0  0  0  0  0  0  0  0  0  0  0  0
  -89.3946   34.5924   -4.5521 C   0  0  0  0  0  0  0  0  0  0  0  0
  -89.8163   34.3616   -3.2330 C   0  0  0  0  0  0  0  0  0  0  0  0
  -89.2148   33.4227   -2.4463 C   0  0  0  0  0  0  0  0  0  0  0  0
  -90.0794   35.5777   -5.3666 C   0  0  0  0  0  0  0  0  0  0  0  0
  -91.0141   35.4439   -6.3262 C   0  0  0  0  0  0  0  0  0  0  0  0
  -91.3098   36.6503   -6.8161 O   0  0  0  0  0  0  0  0  0  0  0  0
  -90.6122   37.5837   -6.2226 C   0  0  0  0  0  0  0  0  0  0  0  0
  -90.5557   38.9525   -6.3664 C   0  0  0  0  0  0  0  0  0  0  0  0
  -89.7111   39.7204   -5.5934 C   0  0  0  0  0  0  0  0  0  0  0  0
  -88.9236   39.0682   -4.6686 C   0  0  0  0  0  0  0  0  0  0  0  0
  -88.9725   37.6850   -4.5152 C   0  0  0  0  0  0  0  0  0  0  0  0
  -89.8143   36.9618   -5.2927 C   0  0  0  0  0  0  0  0  0  0  0  0
  -91.6877   34.2342   -6.8430 C   0  0  0  0  0  0  0  0  0  0  0  0
  -92.4203   33.5340   -5.7709 C   0  0  0  0  0  0  0  0  0  0  0  0
  -93.5203   33.9951   -5.1172 C   0  0  0  0  0  0  0  0  0  0  0  0
  -94.1471   33.2481   -4.1070 C   0  0  0  0  0  0  0  0  0  0  0  0
  -93.6652   32.0156   -3.7414 C   0  0  0  0  0  0  0  0  0  0  0  0
  -92.5523   31.5292   -4.3902 C   0  0  0  0  0  0  0  0  0  0  0  0
  -91.9447   32.2731   -5.3834 C   0  0  0  0  0  0  0  0  0  0  0  0
  -86.4522   29.6897   -0.3271 C   0  0  0  0  0  0  0  0  0  0  0  0
  -86.1426   31.0490   -0.1848 C   0  0  0  0  0  0  0  0  0  0  0  0
  -84.9497   31.5556    1.2061 Br  0  0  0  0  0  0  0  0  0  0  0  0
  -86.6947   32.0013   -1.0186 C   0  0  0  0  0  0  0  0  0  0  0  0
  -87.5718   31.6707   -2.0242 C   0  0  0  0  0  0  0  0  0  0  0  0
  -87.8865   30.3287   -2.1752 C   0  0  0  0  0  0  0  0  0  0  0  0
  -87.3215   29.3656   -1.3281 C   0  0  0  0  0  0  0  0  0  0  0  0
  -87.7815   27.5364   -1.7304 Br  0  0  0  0  0  0  0  0  0  0  0  0
  -85.9029   28.7397    0.4922 O   0  0  0  0  0  0  0  0  0  0  0  0
  -86.3461   28.3687    1.7901 C   0  0  0  0  0  0  0  0  0  0  0  0
  -84.4200   28.6655    3.2365 O   0  0  0  0  0  0  0  0  0  0  0  0
  -85.1376   27.9183    2.5149 C   0  0  0  0  0  0  0  0  0  0  0  0
  -84.7138   26.5967    2.4407 O   0  0  0  0  0  0  0  0  0  0  0  0
  -84.3338   26.1375    1.6546 H   0  0  0  0  0  0  0  0  0  0  0  0
  -87.3830   27.2582    1.7580 C   0  0  0  0  0  0  0  0  0  0  0  0
  -88.7214   27.6701    2.2207 C   0  0  0  0  0  0  0  0  0  0  0  0
  -89.0363   27.5430    3.5873 C   0  0  0  0  0  0  0  0  0  0  0  0
  -90.2783   27.9600    4.0247 C   0  0  0  0  0  0  0  0  0  0  0  0
  -91.2196   28.4968    3.1628 C   0  0  0  0  0  0  0  0  0  0  0  0
  -90.8641   28.6014    1.8303 C   0  0  0  0  0  0  0  0  0  0  0  0
  -89.6406   28.1995    1.3542 C   0  0  0  0  0  0  0  0  0  0  0  0
 33 34  2  0  0  0
 34 35  1  0  0  0
 34 32  1  0  0  0
 32 37  1  0  0  0
 37 38  1  0  0  0
 38 39  2  0  0  0
 39 40  1  0  0  0
 40 41  2  0  0  0
 41 42  1  0  0  0
 42 43  2  0  0  0
 32 31  1  0  0  0
 31 23  1  0  0  0
 23 24  2  0  0  0
 24 25  1  0  0  0
 24 26  1  0  0  0
 26 27  2  0  0  0
 27  1  1  0  0  0
  1  2  2  0  0  0
  2  3  1  0  0  0
  3  4  2  0  0  0
  4  7  1  0  0  0
  7  8  2  0  0  0
  8 16  1  0  0  0
 16 17  1  0  0  0
 17 18  2  0  0  0
 18 19  1  0  0  0
 19 20  2  0  0  0
 20 21  1  0  0  0
 21 22  2  0  0  0
  8  9  1  0  0  0
  9 10  1  0  0  0
 10 11  2  0  0  0
 11 12  1  0  0  0
 12 13  2  0  0  0
 13 14  1  0  0  0
 14 15  2  0  0  0
  4  5  1  0  0  0
  5  6  2  0  0  0
 27 28  1  0  0  0
 28 29  2  0  0  0
 29 30  1  0  0  0
 43 38  1  0  0  0
 29 23  1  0  0  0
  6  1  1  0  0  0
 15  7  1  0  0  0
 22 17  1  0  0  0
 15 10  1  0  0  0
 35 36  1  0  0  0
M  END
> <minimizedAffinity>
-8.30743

> <CNNscore>
0.0993226171

> <CNNaffinity>
6.8770089149

> <CNN_VS>
0.6830425262

> <CNNaffinity_variance>
0.2915173173

$$$$
[H]OC(=O)[C@@]([H])(Oc1c(Br)c([H])c(-c2c([H])c([H])c(-c3c(C([H])([H])c4c([H])c([H])c([H])c([H])c4[H])oc4c([H])c([H])c([H])c([H])c34)c([H])c2[H])c([H])c1Br)C([H])([H])c1c([H])c([H])c([H])c([H])c1[H]


 43 48  0  0  0  0  0  0  0  0999 V2000
  -88.6794   32.6842   -2.4276 C   0  0  0  0  0  0  0  0  0  0  0  0
  -89.0345   32.5270   -1.1020 C   0  0  0  0  0  0  0  0  0  0  0  0
  -88.3453   31.6140   -0.3467 C   0  0  0  0  0  0  0  0  0  0  0  0
  -87.3145   30.8309   -0.8081 C   0  0  0  0  0  0  0  0  0  0  0  0
  -86.9845   31.0221   -2.1593 C   0  0  0  0  0  0  0  0  0  0  0  0
  -87.6529   31.9234   -2.9357 C   0  0  0  0  0  0  0  0  0  0  0  0
  -86.6010   29.8414   -0.0239 C   0  0  0  0  0  0  0  0  0  0  0  0
  -86.9596   28.6149    0.3996 C   0  0  0  0  0  0  0  0  0  0  0  0
  -85.9671   28.0997    1.1294 O   0  0  0  0  0  0  0  0  0  0  0  0
  -84.9607   28.9308    1.2093 C   0  0  0  0  0  0  0  0  0  0  0  0
  -83.7336   28.8669    1.8318 C   0  0  0  0  0  0  0  0  0  0  0  0
  -82.8356   29.9102    1.7555 C   0  0  0  0  0  0  0  0  0  0  0  0
  -83.2102   31.0223    1.0319 C   0  0  0  0  0  0  0  0  0  0  0  0
  -84.4483   31.0976    0.3990 C   0  0  0  0  0  0  0  0  0  0  0  0
  -85.3062   30.0531    0.4958 C   0  0  0  0  0  0  0  0  0  0  0  0
  -88.2011   27.8477    0.1665 C   0  0  0  0  0  0  0  0  0  0  0  0
  -89.1261   27.9722    1.3089 C   0  0  0  0  0  0  0  0  0  0  0  0
  -88.9557   27.4253    2.5425 C   0  0  0  0  0  0  0  0  0  0  0  0
  -89.8992   27.6038    3.5670 C   0  0  0  0  0  0  0  0  0  0  0  0
  -91.0366   28.3431    3.3550 C   0  0  0  0  0  0  0  0  0  0  0  0
  -91.2294   28.9061    2.1133 C   0  0  0  0  0  0  0  0  0  0  0  0
  -90.2933   28.7241    1.1134 C   0  0  0  0  0  0  0  0  0  0  0  0
  -90.7120   35.4020   -5.0626 C   0  0  0  0  0  0  0  0  0  0  0  0
  -89.7691   35.8555   -4.1302 C   0  0  0  0  0  0  0  0  0  0  0  0
  -89.3905   37.7176   -4.0717 Br  0  0  0  0  0  0  0  0  0  0  0  0
  -89.1191   34.9793   -3.2837 C   0  0  0  0  0  0  0  0  0  0  0  0
  -89.3584   33.6258   -3.3101 C   0  0  0  0  0  0  0  0  0  0  0  0
  -90.2893   33.1645   -4.2286 C   0  0  0  0  0  0  0  0  0  0  0  0
  -90.9483   34.0580   -5.0839 C   0  0  0  0  0  0  0  0  0  0  0  0
  -92.2839   33.2728   -6.2325 Br  0  0  0  0  0  0  0  0  0  0  0  0
  -91.3650   36.2665   -5.9002 O   0  0  0  0  0  0  0  0  0  0  0  0
  -92.7319   36.6494   -5.8390 C   0  0  0  0  0  0  0  0  0  0  0  0
  -94.0688   37.8484   -7.4715 O   0  0  0  0  0  0  0  0  0  0  0  0
  -93.0834   37.1067   -7.2013 C   0  0  0  0  0  0  0  0  0  0  0  0
  -92.3159   36.7333   -8.2982 O   0  0  0  0  0  0  0  0  0  0  0  0
  -92.2396   35.8316   -8.6912 H   0  0  0  0  0  0  0  0  0  0  0  0
  -92.9830   37.7594   -4.8319 C   0  0  0  0  0  0  0  0  0  0  0  0
  -94.0351   37.4512   -3.8455 C   0  0  0  0  0  0  0  0  0  0  0  0
  -94.2341   36.1111   -3.4612 C   0  0  0  0  0  0  0  0  0  0  0  0
  -95.1974   35.8278   -2.5127 C   0  0  0  0  0  0  0  0  0  0  0  0
  -95.9705   36.8180   -1.9309 C   0  0  0  0  0  0  0  0  0  0  0  0
  -95.7382   38.1185   -2.3404 C   0  0  0  0  0  0  0  0  0  0  0  0
  -94.7908   38.4435   -3.2795 C   0  0  0  0  0  0  0  0  0  0  0  0
 33 34  2  0  0  0
 34 35  1  0  0  0
 34 32  1  0  0  0
 32 37  1  0  0  0
 37 38  1  0  0  0
 38 39  2  0  0  0
 39 40  1  0  0  0
 40 41  2  0  0  0
 41 42  1  0  0  0
 42 43  2  0  0  0
 32 31  1  0  0  0
 31 23  1  0  0  0
 23 24  2  0  0  0
 24 25  1  0  0  0
 24 26  1  0  0  0
 26 27  2  0  0  0
 27  1  1  0  0  0
  1  2  2  0  0  0
  2  3  1  0  0  0
  3  4  2  0  0  0
  4  7  1  0  0  0
  7  8  2  0  0  0
  8 16  1  0  0  0
 16 17  1  0  0  0
 17 18  2  0  0  0
 18 19  1  0  0  0
 19 20  2  0  0  0
 20 21  1  0  0  0
 21 22  2  0  0  0
  8  9  1  0  0  0
  9 10  1  0  0  0
 10 11  2  0  0  0
 11 12  1  0  0  0
 12 13  2  0  0  0
 13 14  1  0  0  0
 14 15  2  0  0  0
  4  5  1  0  0  0
  5  6  2  0  0  0
 27 28  1  0  0  0
 28 29  2  0  0  0
 29 30  1  0  0  0
 43 38  1  0  0  0
 29 23  1  0  0  0
  6  1  1  0  0  0
 15  7  1  0  0  0
 22 17  1  0  0  0
 15 10  1  0  0  0
 35 36  1  0  0  0
M  END
> <minimizedAffinity>
-8.87827

> <CNNscore>
0.0956241712

> <CNNaffinity>
6.6742835045

> <CNN_VS>
0.6382228136

> <CNNaffinity_variance>
0.2607947290

$$$$
[H]OC(=O)[C@@]([H])(Oc1c(Br)c([H])c(-c2c([H])c([H])c(-c3c(C([H])([H])c4c([H])c([H])c([H])c([H])c4[H])oc4c([H])c([H])c([H])c([H])c34)c([H])c2[H])c([H])c1Br)C([H])([H])c1c([H])c([H])c([H])c([H])c1[H]


 43 48  0  0  0  0  0  0  0  0999 V2000
  -88.2434   32.1050   -2.2730 C   0  0  0  0  0  0  0  0  0  0  0  0
  -88.0954   30.8128   -2.7382 C   0  0  0  0  0  0  0  0  0  0  0  0
  -87.5139   29.8858   -1.9126 C   0  0  0  0  0  0  0  0  0  0  0  0
  -87.0598   30.1413   -0.6410 C   0  0  0  0  0  0  0  0  0  0  0  0
  -87.2300   31.4654   -0.2063 C   0  0  0  0  0  0  0  0  0  0  0  0
  -87.8051   32.4099   -1.0058 C   0  0  0  0  0  0  0  0  0  0  0  0
  -86.4162   29.1739    0.2268 C   0  0  0  0  0  0  0  0  0  0  0  0
  -86.8416   27.9919    0.7110 C   0  0  0  0  0  0  0  0  0  0  0  0
  -85.8972   27.4826    1.5057 O   0  0  0  0  0  0  0  0  0  0  0  0
  -84.8588   28.2748    1.5709 C   0  0  0  0  0  0  0  0  0  0  0  0
  -83.6569   28.1991    2.2396 C   0  0  0  0  0  0  0  0  0  0  0  0
  -82.7125   29.1976    2.1321 C   0  0  0  0  0  0  0  0  0  0  0  0
  -83.0142   30.2771    1.3293 C   0  0  0  0  0  0  0  0  0  0  0  0
  -84.2262   30.3639    0.6492 C   0  0  0  0  0  0  0  0  0  0  0  0
  -85.1314   29.3638    0.7786 C   0  0  0  0  0  0  0  0  0  0  0  0
  -88.1069   27.2637    0.4807 C   0  0  0  0  0  0  0  0  0  0  0  0
  -89.1684   27.7413    1.3870 C   0  0  0  0  0  0  0  0  0  0  0  0
  -90.2099   28.5478    1.0483 C   0  0  0  0  0  0  0  0  0  0  0  0
  -91.1720   28.9473    1.9896 C   0  0  0  0  0  0  0  0  0  0  0  0
  -91.0922   28.5336    3.2963 C   0  0  0  0  0  0  0  0  0  0  0  0
  -90.0457   27.7165    3.6614 C   0  0  0  0  0  0  0  0  0  0  0  0
  -89.1055   27.3292    2.7258 C   0  0  0  0  0  0  0  0  0  0  0  0
  -89.9796   35.2643   -4.6108 C   0  0  0  0  0  0  0  0  0  0  0  0
  -90.3313   33.9237   -4.8180 C   0  0  0  0  0  0  0  0  0  0  0  0
  -91.6231   33.5327   -6.1566 Br  0  0  0  0  0  0  0  0  0  0  0  0
  -89.7698   32.9107   -4.0659 C   0  0  0  0  0  0  0  0  0  0  0  0
  -88.8444   33.1602   -3.0805 C   0  0  0  0  0  0  0  0  0  0  0  0
  -88.4881   34.4830   -2.8655 C   0  0  0  0  0  0  0  0  0  0  0  0
  -89.0588   35.5074   -3.6332 C   0  0  0  0  0  0  0  0  0  0  0  0
  -88.3860   37.2800   -3.2801 Br  0  0  0  0  0  0  0  0  0  0  0  0
  -90.5276   36.2729   -5.3577 O   0  0  0  0  0  0  0  0  0  0  0  0
  -89.9096   36.9827   -6.4222 C   0  0  0  0  0  0  0  0  0  0  0  0
  -90.9348   36.2192   -8.4852 O   0  0  0  0  0  0  0  0  0  0  0  0
  -90.9088   37.0236   -7.5125 C   0  0  0  0  0  0  0  0  0  0  0  0
  -91.9132   37.9841   -7.5224 O   0  0  0  0  0  0  0  0  0  0  0  0
  -91.8073   38.9536   -7.6712 H   0  0  0  0  0  0  0  0  0  0  0  0
  -88.6327   36.3154   -6.9055 C   0  0  0  0  0  0  0  0  0  0  0  0
  -87.5194   37.2510   -7.1502 C   0  0  0  0  0  0  0  0  0  0  0  0
  -87.4772   37.9519   -8.3708 C   0  0  0  0  0  0  0  0  0  0  0  0
  -86.4521   38.8525   -8.5850 C   0  0  0  0  0  0  0  0  0  0  0  0
  -85.4681   39.0855   -7.6393 C   0  0  0  0  0  0  0  0  0  0  0  0
  -85.5522   38.3735   -6.4565 C   0  0  0  0  0  0  0  0  0  0  0  0
  -86.5543   37.4698   -6.2032 C   0  0  0  0  0  0  0  0  0  0  0  0
 33 34  2  0  0  0
 34 35  1  0  0  0
 34 32  1  0  0  0
 32 37  1  0  0  0
 37 38  1  0  0  0
 38 39  2  0  0  0
 39 40  1  0  0  0
 40 41  2  0  0  0
 41 42  1  0  0  0
 42 43  2  0  0  0
 32 31  1  0  0  0
 31 23  1  0  0  0
 23 24  2  0  0  0
 24 25  1  0  0  0
 24 26  1  0  0  0
 26 27  2  0  0  0
 27  1  1  0  0  0
  1  2  2  0  0  0
  2  3  1  0  0  0
  3  4  2  0  0  0
  4  7  1  0  0  0
  7  8  2  0  0  0
  8 16  1  0  0  0
 16 17  1  0  0  0
 17 18  2  0  0  0
 18 19  1  0  0  0
 19 20  2  0  0  0
 20 21  1  0  0  0
 21 22  2  0  0  0
  8  9  1  0  0  0
  9 10  1  0  0  0
 10 11  2  0  0  0
 11 12  1  0  0  0
 12 13  2  0  0  0
 13 14  1  0  0  0
 14 15  2  0  0  0
  4  5  1  0  0  0
  5  6  2  0  0  0
 27 28  1  0  0  0
 28 29  2  0  0  0
 29 30  1  0  0  0
 43 38  1  0  0  0
 29 23  1  0  0  0
  6  1  1  0  0  0
 15  7  1  0  0  0
 22 17  1  0  0  0
 15 10  1  0  0  0
 35 36  1  0  0  0
M  END
> <minimizedAffinity>
-10.60560

> <CNNscore>
0.0825162083

> <CNNaffinity>
6.5904340744

> <CNN_VS>
0.5438176394

> <CNNaffinity_variance>
0.4164725840

$$$$
[H]OC(=O)[C@@]([H])(Oc1c(Br)c([H])c(-c2c([H])c([H])c(-c3c(C([H])([H])c4c([H])c([H])c([H])c([H])c4[H])oc4c([H])c([H])c([H])c([H])c34)c([H])c2[H])c([H])c1Br)C([H])([H])c1c([H])c([H])c([H])c([H])c1[H]


 43 48  0  0  0  0  0  0  0  0999 V2000
  -88.7999   32.7210   -2.6301 C   0  0  0  0  0  0  0  0  0  0  0  0
  -88.7453   32.8825   -1.2593 C   0  0  0  0  0  0  0  0  0  0  0  0
  -88.4901   31.7818   -0.4833 C   0  0  0  0  0  0  0  0  0  0  0  0
  -88.2809   30.5120   -0.9654 C   0  0  0  0  0  0  0  0  0  0  0  0
  -88.3436   30.3913   -2.3628 C   0  0  0  0  0  0  0  0  0  0  0  0
  -88.5961   31.4690   -3.1608 C   0  0  0  0  0  0  0  0  0  0  0  0
  -88.0406   29.3373   -0.1496 C   0  0  0  0  0  0  0  0  0  0  0  0
  -86.9099   28.6589    0.1216 C   0  0  0  0  0  0  0  0  0  0  0  0
  -87.2056   27.6145    0.8993 O   0  0  0  0  0  0  0  0  0  0  0  0
  -88.4864   27.5685    1.1593 C   0  0  0  0  0  0  0  0  0  0  0  0
  -89.2673   26.7064    1.8971 C   0  0  0  0  0  0  0  0  0  0  0  0
  -90.6286   26.8916    2.0114 C   0  0  0  0  0  0  0  0  0  0  0  0
  -91.1819   27.9733    1.3598 C   0  0  0  0  0  0  0  0  0  0  0  0
  -90.4019   28.8507    0.6110 C   0  0  0  0  0  0  0  0  0  0  0  0
  -89.0668   28.6375    0.5202 C   0  0  0  0  0  0  0  0  0  0  0  0
  -85.5162   28.9169   -0.2968 C   0  0  0  0  0  0  0  0  0  0  0  0
  -84.9030   29.9801    0.5217 C   0  0  0  0  0  0  0  0  0  0  0  0
  -85.2908   30.3563    1.7698 C   0  0  0  0  0  0  0  0  0  0  0  0
  -84.6382   31.3848    2.4682 C   0  0  0  0  0  0  0  0  0  0  0  0
  -83.5768   32.0520    1.9084 C   0  0  0  0  0  0  0  0  0  0  0  0
  -83.1672   31.6874    0.6453 C   0  0  0  0  0  0  0  0  0  0  0  0
  -83.8168   30.6731   -0.0317 C   0  0  0  0  0  0  0  0  0  0  0  0
  -89.5723   36.0395   -5.2478 C   0  0  0  0  0  0  0  0  0  0  0  0
  -89.9758   34.7387   -5.5780 C   0  0  0  0  0  0  0  0  0  0  0  0
  -90.9010   34.4765   -7.2178 Br  0  0  0  0  0  0  0  0  0  0  0  0
  -89.7242   33.6743   -4.7350 C   0  0  0  0  0  0  0  0  0  0  0  0
  -89.0711   33.8315   -3.5356 C   0  0  0  0  0  0  0  0  0  0  0  0
  -88.6668   35.1141   -3.1972 C   0  0  0  0  0  0  0  0  0  0  0  0
  -88.9221   36.1908   -4.0574 C   0  0  0  0  0  0  0  0  0  0  0  0
  -88.2096   37.8909   -3.4903 Br  0  0  0  0  0  0  0  0  0  0  0  0
  -89.8127   37.0983   -6.0824 O   0  0  0  0  0  0  0  0  0  0  0  0
  -90.6380   38.2248   -5.8202 C   0  0  0  0  0  0  0  0  0  0  0  0
  -92.9341   37.5313   -5.4504 O   0  0  0  0  0  0  0  0  0  0  0  0
  -92.0002   37.8335   -6.2444 C   0  0  0  0  0  0  0  0  0  0  0  0
  -92.3389   37.7797   -7.5912 O   0  0  0  0  0  0  0  0  0  0  0  0
  -92.0149   37.1311   -8.2603 H   0  0  0  0  0  0  0  0  0  0  0  0
  -90.1897   39.4655   -6.5746 C   0  0  0  0  0  0  0  0  0  0  0  0
  -88.9338   39.2918   -7.3278 C   0  0  0  0  0  0  0  0  0  0  0  0
  -87.7268   39.7221   -6.7439 C   0  0  0  0  0  0  0  0  0  0  0  0
  -86.5474   39.5286   -7.4364 C   0  0  0  0  0  0  0  0  0  0  0  0
  -86.5166   38.9269   -8.6830 C   0  0  0  0  0  0  0  0  0  0  0  0
  -87.7272   38.5213   -9.2150 C   0  0  0  0  0  0  0  0  0  0  0  0
  -88.9215   38.6941   -8.5602 C   0  0  0  0  0  0  0  0  0  0  0  0
 33 34  2  0  0  0
 34 35  1  0  0  0
 34 32  1  0  0  0
 32 37  1  0  0  0
 37 38  1  0  0  0
 38 39  2  0  0  0
 39 40  1  0  0  0
 40 41  2  0  0  0
 41 42  1  0  0  0
 42 43  2  0  0  0
 32 31  1  0  0  0
 31 23  1  0  0  0
 23 24  2  0  0  0
 24 25  1  0  0  0
 24 26  1  0  0  0
 26 27  2  0  0  0
 27  1  1  0  0  0
  1  2  2  0  0  0
  2  3  1  0  0  0
  3  4  2  0  0  0
  4  7  1  0  0  0
  7  8  2  0  0  0
  8 16  1  0  0  0
 16 17  1  0  0  0
 17 18  2  0  0  0
 18 19  1  0  0  0
 19 20  2  0  0  0
 20 21  1  0  0  0
 21 22  2  0  0  0
  8  9  1  0  0  0
  9 10  1  0  0  0
 10 11  2  0  0  0
 11 12  1  0  0  0
 12 13  2  0  0  0
 13 14  1  0  0  0
 14 15  2  0  0  0
  4  5  1  0  0  0
  5  6  2  0  0  0
 27 28  1  0  0  0
 28 29  2  0  0  0
 29 30  1  0  0  0
 43 38  1  0  0  0
 29 23  1  0  0  0
  6  1  1  0  0  0
 15  7  1  0  0  0
 22 17  1  0  0  0
 15 10  1  0  0  0
 35 36  1  0  0  0
M  END
> <minimizedAffinity>
-8.82880

> <CNNscore>
0.0786704570

> <CNNaffinity>
6.4325304031

> <CNN_VS>
0.5060501099

> <CNNaffinity_variance>
0.4221010208

$$$$
[H]OC(=O)[C@@]([H])(Oc1c(Br)c([H])c(-c2c([H])c([H])c(-c3c(C([H])([H])c4c([H])c([H])c([H])c([H])c4[H])oc4c([H])c([H])c([H])c([H])c34)c([H])c2[H])c([H])c1Br)C([H])([H])c1c([H])c([H])c([H])c([H])c1[H]


 43 48  0  0  0  0  0  0  0  0999 V2000
  -88.1803   31.7283   -2.1081 C   0  0  0  0  0  0  0  0  0  0  0  0
  -88.0086   30.4345   -2.5604 C   0  0  0  0  0  0  0  0  0  0  0  0
  -87.4405   29.5184   -1.7137 C   0  0  0  0  0  0  0  0  0  0  0  0
  -87.0220   29.7865   -0.4325 C   0  0  0  0  0  0  0  0  0  0  0  0
  -87.2153   31.1119   -0.0115 C   0  0  0  0  0  0  0  0  0  0  0  0
  -87.7779   32.0457   -0.8322 C   0  0  0  0  0  0  0  0  0  0  0  0
  -86.3926   28.8308    0.4584 C   0  0  0  0  0  0  0  0  0  0  0  0
  -86.8453   27.6811    0.9927 C   0  0  0  0  0  0  0  0  0  0  0  0
  -85.9023   27.1708    1.7885 O   0  0  0  0  0  0  0  0  0  0  0  0
  -84.8388   27.9315    1.8066 C   0  0  0  0  0  0  0  0  0  0  0  0
  -83.6275   27.8417    2.4563 C   0  0  0  0  0  0  0  0  0  0  0  0
  -82.6547   28.8053    2.2960 C   0  0  0  0  0  0  0  0  0  0  0  0
  -82.9379   29.8644    1.4599 C   0  0  0  0  0  0  0  0  0  0  0  0
  -84.1591   29.9652    0.7986 C   0  0  0  0  0  0  0  0  0  0  0  0
  -85.0923   28.9996    0.9802 C   0  0  0  0  0  0  0  0  0  0  0  0
  -88.1366   26.9855    0.8113 C   0  0  0  0  0  0  0  0  0  0  0  0
  -89.1346   27.4518    1.7925 C   0  0  0  0  0  0  0  0  0  0  0  0
  -89.1648   27.1404    3.1162 C   0  0  0  0  0  0  0  0  0  0  0  0
  -90.1619   27.6385    3.9702 C   0  0  0  0  0  0  0  0  0  0  0  0
  -91.1496   28.4639    3.4925 C   0  0  0  0  0  0  0  0  0  0  0  0
  -91.1383   28.7923    2.1553 C   0  0  0  0  0  0  0  0  0  0  0  0
  -90.1513   28.2967    1.3249 C   0  0  0  0  0  0  0  0  0  0  0  0
  -89.8767   34.8554   -4.5174 C   0  0  0  0  0  0  0  0  0  0  0  0
  -90.3126   33.5283   -4.6296 C   0  0  0  0  0  0  0  0  0  0  0  0
  -91.7007   33.1427   -5.8699 Br  0  0  0  0  0  0  0  0  0  0  0  0
  -89.7638   32.5255   -3.8548 C   0  0  0  0  0  0  0  0  0  0  0  0
  -88.7695   32.7726   -2.9383 C   0  0  0  0  0  0  0  0  0  0  0  0
  -88.3296   34.0821   -2.8176 C   0  0  0  0  0  0  0  0  0  0  0  0
  -88.8879   35.0960   -3.6081 C   0  0  0  0  0  0  0  0  0  0  0  0
  -88.0998   36.8430   -3.3926 Br  0  0  0  0  0  0  0  0  0  0  0  0
  -90.4121   35.8533   -5.2875 O   0  0  0  0  0  0  0  0  0  0  0  0
  -90.2049   36.0671   -6.6768 C   0  0  0  0  0  0  0  0  0  0  0  0
  -88.7222   37.9860   -6.7721 O   0  0  0  0  0  0  0  0  0  0  0  0
  -88.8896   36.7348   -6.7899 C   0  0  0  0  0  0  0  0  0  0  0  0
  -87.7227   35.9916   -6.9225 O   0  0  0  0  0  0  0  0  0  0  0  0
  -87.4446   35.4557   -7.7028 H   0  0  0  0  0  0  0  0  0  0  0  0
  -91.2873   36.9309   -7.3028 C   0  0  0  0  0  0  0  0  0  0  0  0
  -92.4944   36.1859   -7.7062 C   0  0  0  0  0  0  0  0  0  0  0  0
  -92.4398   35.3763   -8.8571 C   0  0  0  0  0  0  0  0  0  0  0  0
  -93.5610   34.6534   -9.2150 C   0  0  0  0  0  0  0  0  0  0  0  0
  -94.7327   34.7011   -8.4791 C   0  0  0  0  0  0  0  0  0  0  0  0
  -94.7377   35.5101   -7.3572 C   0  0  0  0  0  0  0  0  0  0  0  0
  -93.6455   36.2443   -6.9661 C   0  0  0  0  0  0  0  0  0  0  0  0
 33 34  2  0  0  0
 34 35  1  0  0  0
 34 32  1  0  0  0
 32 37  1  0  0  0
 37 38  1  0  0  0
 38 39  2  0  0  0
 39 40  1  0  0  0
 40 41  2  0  0  0
 41 42  1  0  0  0
 42 43  2  0  0  0
 32 31  1  0  0  0
 31 23  1  0  0  0
 23 24  2  0  0  0
 24 25  1  0  0  0
 24 26  1  0  0  0
 26 27  2  0  0  0
 27  1  1  0  0  0
  1  2  2  0  0  0
  2  3  1  0  0  0
  3  4  2  0  0  0
  4  7  1  0  0  0
  7  8  2  0  0  0
  8 16  1  0  0  0
 16 17  1  0  0  0
 17 18  2  0  0  0
 18 19  1  0  0  0
 19 20  2  0  0  0
 20 21  1  0  0  0
 21 22  2  0  0  0
  8  9  1  0  0  0
  9 10  1  0  0  0
 10 11  2  0  0  0
 11 12  1  0  0  0
 12 13  2  0  0  0
 13 14  1  0  0  0
 14 15  2  0  0  0
  4  5  1  0  0  0
  5  6  2  0  0  0
 27 28  1  0  0  0
 28 29  2  0  0  0
 29 30  1  0  0  0
 43 38  1  0  0  0
 29 23  1  0  0  0
  6  1  1  0  0  0
 15  7  1  0  0  0
 22 17  1  0  0  0
 15 10  1  0  0  0
 35 36  1  0  0  0
M  END
> <minimizedAffinity>
-9.85583

> <CNNscore>
0.0712639615

> <CNNaffinity>
6.5423173904

> <CNN_VS>
0.4662314653

> <CNNaffinity_variance>
0.2276093215

$$$$
[H]OC(=O)[C@@]([H])(Oc1c(Br)c([H])c(-c2c([H])c([H])c(-c3c(C([H])([H])c4c([H])c([H])c([H])c([H])c4[H])oc4c([H])c([H])c([H])c([H])c34)c([H])c2[H])c([H])c1Br)C([H])([H])c1c([H])c([H])c([H])c([H])c1[H]


 43 48  0  0  0  0  0  0  0  0999 V2000
  -89.9734   29.6502   -2.0123 C   0  0  0  0  0  0  0  0  0  0  0  0
  -90.0817   30.4092   -0.8633 C   0  0  0  0  0  0  0  0  0  0  0  0
  -88.9350   30.9057   -0.2999 C   0  0  0  0  0  0  0  0  0  0  0  0
  -87.6677   30.7068   -0.7927 C   0  0  0  0  0  0  0  0  0  0  0  0
  -87.6016   29.9316   -1.9614 C   0  0  0  0  0  0  0  0  0  0  0  0
  -88.7260   29.4238   -2.5445 C   0  0  0  0  0  0  0  0  0  0  0  0
  -86.4475   31.2029   -0.1859 C   0  0  0  0  0  0  0  0  0  0  0  0
  -85.8837   32.4254   -0.1934 C   0  0  0  0  0  0  0  0  0  0  0  0
  -84.7321   32.3770    0.4808 O   0  0  0  0  0  0  0  0  0  0  0  0
  -84.5047   31.1735    0.9390 C   0  0  0  0  0  0  0  0  0  0  0  0
  -83.4793   30.6249    1.6773 C   0  0  0  0  0  0  0  0  0  0  0  0
  -83.4865   29.2938    2.0360 C   0  0  0  0  0  0  0  0  0  0  0  0
  -84.5593   28.5294    1.6289 C   0  0  0  0  0  0  0  0  0  0  0  0
  -85.6009   29.0737    0.8820 C   0  0  0  0  0  0  0  0  0  0  0  0
  -85.5604   30.3860    0.5470 C   0  0  0  0  0  0  0  0  0  0  0  0
  -86.3512   33.6904   -0.7976 C   0  0  0  0  0  0  0  0  0  0  0  0
  -87.1404   33.4375   -2.0181 C   0  0  0  0  0  0  0  0  0  0  0  0
  -86.6560   32.9955   -3.2097 C   0  0  0  0  0  0  0  0  0  0  0  0
  -87.4944   32.7849   -4.3162 C   0  0  0  0  0  0  0  0  0  0  0  0
  -88.8442   33.0212   -4.2312 C   0  0  0  0  0  0  0  0  0  0  0  0
  -89.3563   33.4691   -3.0341 C   0  0  0  0  0  0  0  0  0  0  0  0
  -88.5214   33.6717   -1.9519 C   0  0  0  0  0  0  0  0  0  0  0  0
  -93.3698   27.8891   -3.9679 C   0  0  0  0  0  0  0  0  0  0  0  0
  -93.2096   29.2792   -3.8920 C   0  0  0  0  0  0  0  0  0  0  0  0
  -94.5323   30.3792   -4.7010 Br  0  0  0  0  0  0  0  0  0  0  0  0
  -92.1176   29.8417   -3.2611 C   0  0  0  0  0  0  0  0  0  0  0  0
  -91.1359   29.0753   -2.6792 C   0  0  0  0  0  0  0  0  0  0  0  0
  -91.2827   27.6981   -2.7478 C   0  0  0  0  0  0  0  0  0  0  0  0
  -92.3942   27.1319   -3.3869 C   0  0  0  0  0  0  0  0  0  0  0  0
  -92.5029   25.2079   -3.3100 Br  0  0  0  0  0  0  0  0  0  0  0  0
  -94.4538   27.3251   -4.5862 O   0  0  0  0  0  0  0  0  0  0  0  0
  -94.4513   26.5405   -5.7707 C   0  0  0  0  0  0  0  0  0  0  0  0
  -95.0358   28.0759   -7.5571 O   0  0  0  0  0  0  0  0  0  0  0  0
  -94.1563   27.4796   -6.8752 C   0  0  0  0  0  0  0  0  0  0  0  0
  -92.8449   27.7699   -7.2321 O   0  0  0  0  0  0  0  0  0  0  0  0
  -92.1976   27.1626   -7.6628 H   0  0  0  0  0  0  0  0  0  0  0  0
  -95.7807   25.8455   -6.0139 C   0  0  0  0  0  0  0  0  0  0  0  0
  -95.8176   24.4414   -5.5646 C   0  0  0  0  0  0  0  0  0  0  0  0
  -95.6550   23.4186   -6.5187 C   0  0  0  0  0  0  0  0  0  0  0  0
  -95.6567   22.1050   -6.0918 C   0  0  0  0  0  0  0  0  0  0  0  0
  -95.8133   21.7650   -4.7588 C   0  0  0  0  0  0  0  0  0  0  0  0
  -95.9694   22.8042   -3.8595 C   0  0  0  0  0  0  0  0  0  0  0  0
  -95.9732   24.1229   -4.2415 C   0  0  0  0  0  0  0  0  0  0  0  0
 33 34  2  0  0  0
 34 35  1  0  0  0
 34 32  1  0  0  0
 32 37  1  0  0  0
 37 38  1  0  0  0
 38 39  2  0  0  0
 39 40  1  0  0  0
 40 41  2  0  0  0
 41 42  1  0  0  0
 42 43  2  0  0  0
 32 31  1  0  0  0
 31 23  1  0  0  0
 23 24  2  0  0  0
 24 25  1  0  0  0
 24 26  1  0  0  0
 26 27  2  0  0  0
 27  1  1  0  0  0
  1  2  2  0  0  0
  2  3  1  0  0  0
  3  4  2  0  0  0
  4  7  1  0  0  0
  7  8  2  0  0  0
  8 16  1  0  0  0
 16 17  1  0  0  0
 17 18  2  0  0  0
 18 19  1  0  0  0
 19 20  2  0  0  0
 20 21  1  0  0  0
 21 22  2  0  0  0
  8  9  1  0  0  0
  9 10  1  0  0  0
 10 11  2  0  0  0
 11 12  1  0  0  0
 12 13  2  0  0  0
 13 14  1  0  0  0
 14 15  2  0  0  0
  4  5  1  0  0  0
  5  6  2  0  0  0
 27 28  1  0  0  0
 28 29  2  0  0  0
 29 30  1  0  0  0
 43 38  1  0  0  0
 29 23  1  0  0  0
  6  1  1  0  0  0
 15  7  1  0  0  0
 22 17  1  0  0  0
 15 10  1  0  0  0
 35 36  1  0  0  0
M  END
> <minimizedAffinity>
-8.81184

> <CNNscore>
0.0677304268

> <CNNaffinity>
6.3385405540

> <CNN_VS>
0.4293120503

> <CNNaffinity_variance>
0.3610307574

$$$$
[H]c1c(F)c(C(=O)N([H])S(=O)(=O)C2([H])C([H])([H])C2([H])[H])c([H])c(C2([H])C([H])([H])C2([H])[H])c1OC([H])([H])C1([H])C([H])([H])C([H])([H])C([H])(C(F)(F)F)C([H])([H])C1([H])[H]


 32 35  0  0  0  0  0  0  0  0999 V2000
  -87.3687   32.8969   -1.9856 C   0  0  0  0  0  0  0  0  0  0  0  0
  -86.2526   32.9421   -1.1427 C   0  0  0  0  0  0  0  0  0  0  0  0
  -85.8546   31.9015   -0.3662 C   0  0  0  0  0  0  0  0  0  0  0  0
  -86.5746   30.6758   -0.3708 C   0  0  0  0  0  0  0  0  0  0  0  0
  -87.6720   30.6493   -1.2088 C   0  0  0  0  0  0  0  0  0  0  0  0
  -88.0594   31.7315   -1.9955 C   0  0  0  0  0  0  0  0  0  0  0  0
  -89.1469   31.5958   -2.7602 F   0  0  0  0  0  0  0  0  0  0  0  0
  -88.8596   34.5377   -2.7296 O   0  0  0  0  0  0  0  0  0  0  0  0
  -87.6555   34.0850   -2.7594 C   0  0  0  0  0  0  0  0  0  0  0  0
  -86.7680   34.8179   -3.5498 N   0  0  0  0  0  0  0  0  0  0  0  0
  -85.7802   34.5684   -3.6447 H   0  0  0  0  0  0  0  0  0  0  0  0
  -87.2878   36.2161   -4.4114 S   0  0  0  0  0  0  0  0  0  0  0  0
  -86.0969   37.0458   -4.8273 O   0  0  0  0  0  0  0  0  0  0  0  0
  -88.1697   37.0874   -3.5697 O   0  0  0  0  0  0  0  0  0  0  0  0
  -88.1746   35.7290   -5.9000 C   0  0  0  0  0  0  0  0  0  0  0  0
  -89.6158   36.0986   -6.0352 C   0  0  0  0  0  0  0  0  0  0  0  0
  -88.6070   36.9215   -6.7343 C   0  0  0  0  0  0  0  0  0  0  0  0
  -84.6657   31.9756    0.5432 C   0  0  0  0  0  0  0  0  0  0  0  0
  -83.4652   31.1637    0.3186 C   0  0  0  0  0  0  0  0  0  0  0  0
  -83.4210   32.5814   -0.1152 C   0  0  0  0  0  0  0  0  0  0  0  0
  -86.1376   29.6939    0.4023 O   0  0  0  0  0  0  0  0  0  0  0  0
  -86.3266   28.4513    0.7639 C   0  0  0  0  0  0  0  0  0  0  0  0
  -87.5449   27.9373    1.4276 C   0  0  0  0  0  0  0  0  0  0  0  0
  -88.7787   27.9261    0.5452 C   0  0  0  0  0  0  0  0  0  0  0  0
  -89.9497   28.1505    1.4600 C   0  0  0  0  0  0  0  0  0  0  0  0
  -90.0137   27.1490    2.5438 C   0  0  0  0  0  0  0  0  0  0  0  0
  -88.8182   26.3626    2.8912 C   0  0  0  0  0  0  0  0  0  0  0  0
  -87.5271   26.6925    2.1996 C   0  0  0  0  0  0  0  0  0  0  0  0
  -90.6483   27.7595    3.8194 C   0  0  0  0  0  0  0  0  0  0  0  0
  -91.3185   26.8291    4.5511 F   0  0  0  0  0  0  0  0  0  0  0  0
  -89.6425   28.2748    4.6258 F   0  0  0  0  0  0  0  0  0  0  0  0
  -91.4570   28.8157    3.4850 F   0  0  0  0  0  0  0  0  0  0  0  0
  8  9  2  0  0  0
  9 10  1  0  0  0
 10 12  1  0  0  0
 12 13  2  0  0  0
 12 14  2  0  0  0
 12 15  1  0  0  0
 15 16  1  0  0  0
 16 17  1  0  0  0
  9  1  1  0  0  0
  1  2  2  0  0  0
  2  3  1  0  0  0
  3 18  1  0  0  0
 18 19  1  0  0  0
 19 20  1  0  0  0
  3  4  2  0  0  0
  4 21  1  0  0  0
 21 22  1  0  0  0
 22 23  1  0  0  0
 23 24  1  0  0  0
 24 25  1  0  0  0
 25 26  1  0  0  0
 26 29  1  0  0  0
 29 30  1  0  0  0
 29 31  1  0  0  0
 29 32  1  0  0  0
 26 27  1  0  0  0
 27 28  1  0  0  0
  4  5  1  0  0  0
  5  6  2  0  0  0
  6  7  1  0  0  0
 17 15  1  0  0  0
  6  1  1  0  0  0
 20 18  1  0  0  0
 28 23  1  0  0  0
 10 11  1  0  0  0
M  END
> <minimizedAffinity>
-8.70905

> <CNNscore>
0.5269404650

> <CNNaffinity>
6.9033598900

> <CNN_VS>
3.6376597881

> <CNNaffinity_variance>
0.2138620615

$$$$
[H]c1c(F)c(C(=O)N([H])S(=O)(=O)C2([H])C([H])([H])C2([H])[H])c([H])c(C2([H])C([H])([H])C2([H])[H])c1OC([H])([H])C1([H])C([H])([H])C([H])([H])C([H])(C(F)(F)F)C([H])([H])C1([H])[H]


 32 35  0  0  0  0  0  0  0  0999 V2000
  -88.1012   32.5807   -3.7354 C   0  0  0  0  0  0  0  0  0  0  0  0
  -87.6273   32.6475   -2.4205 C   0  0  0  0  0  0  0  0  0  0  0  0
  -87.3759   31.5538   -1.6557 C   0  0  0  0  0  0  0  0  0  0  0  0
  -87.5885   30.2452   -2.1688 C   0  0  0  0  0  0  0  0  0  0  0  0
  -88.0553   30.1988   -3.4677 C   0  0  0  0  0  0  0  0  0  0  0  0
  -88.3055   31.3366   -4.2312 C   0  0  0  0  0  0  0  0  0  0  0  0
  -88.7678   31.1709   -5.4741 F   0  0  0  0  0  0  0  0  0  0  0  0
  -89.5202   34.2452   -4.5628 O   0  0  0  0  0  0  0  0  0  0  0  0
  -88.3081   33.8364   -4.4232 C   0  0  0  0  0  0  0  0  0  0  0  0
  -87.3344   34.6784   -4.9641 N   0  0  0  0  0  0  0  0  0  0  0  0
  -86.3340   34.4718   -4.9062 H   0  0  0  0  0  0  0  0  0  0  0  0
  -87.7657   36.1450   -5.7581 S   0  0  0  0  0  0  0  0  0  0  0  0
  -89.2033   36.0876   -6.2161 O   0  0  0  0  0  0  0  0  0  0  0  0
  -86.9181   36.3869   -6.9699 O   0  0  0  0  0  0  0  0  0  0  0  0
  -87.5973   37.5328   -4.6245 C   0  0  0  0  0  0  0  0  0  0  0  0
  -88.8318   38.1709   -4.0759 C   0  0  0  0  0  0  0  0  0  0  0  0
  -88.0991   37.2066   -3.2292 C   0  0  0  0  0  0  0  0  0  0  0  0
  -86.8847   31.6467   -0.2429 C   0  0  0  0  0  0  0  0  0  0  0  0
  -85.5970   31.0788    0.1698 C   0  0  0  0  0  0  0  0  0  0  0  0
  -85.6506   32.5406   -0.0753 C   0  0  0  0  0  0  0  0  0  0  0  0
  -87.3214   29.2160   -1.3801 O   0  0  0  0  0  0  0  0  0  0  0  0
  -87.6451   27.9847   -1.0805 C   0  0  0  0  0  0  0  0  0  0  0  0
  -88.3439   27.5685    0.1554 C   0  0  0  0  0  0  0  0  0  0  0  0
  -89.6363   26.8110   -0.0835 C   0  0  0  0  0  0  0  0  0  0  0  0
  -90.5372   27.1452    1.0720 C   0  0  0  0  0  0  0  0  0  0  0  0
  -89.9196   26.8241    2.3748 C   0  0  0  0  0  0  0  0  0  0  0  0
  -88.4614   26.6453    2.4742 C   0  0  0  0  0  0  0  0  0  0  0  0
  -87.6294   26.9130    1.2534 C   0  0  0  0  0  0  0  0  0  0  0  0
  -90.4211   27.7943    3.4747 C   0  0  0  0  0  0  0  0  0  0  0  0
  -91.0837   28.8605    2.9510 F   0  0  0  0  0  0  0  0  0  0  0  0
  -91.3083   27.1220    4.3043 F   0  0  0  0  0  0  0  0  0  0  0  0
  -89.3740   28.1914    4.2669 F   0  0  0  0  0  0  0  0  0  0  0  0
  8  9  2  0  0  0
  9 10  1  0  0  0
 10 12  1  0  0  0
 12 13  2  0  0  0
 12 14  2  0  0  0
 12 15  1  0  0  0
 15 16  1  0  0  0
 16 17  1  0  0  0
  9  1  1  0  0  0
  1  2  2  0  0  0
  2  3  1  0  0  0
  3 18  1  0  0  0
 18 19  1  0  0  0
 19 20  1  0  0  0
  3  4  2  0  0  0
  4 21  1  0  0  0
 21 22  1  0  0  0
 22 23  1  0  0  0
 23 24  1  0  0  0
 24 25  1  0  0  0
 25 26  1  0  0  0
 26 29  1  0  0  0
 29 30  1  0  0  0
 29 31  1  0  0  0
 29 32  1  0  0  0
 26 27  1  0  0  0
 27 28  1  0  0  0
  4  5  1  0  0  0
  5  6  2  0  0  0
  6  7  1  0  0  0
 17 15  1  0  0  0
  6  1  1  0  0  0
 20 18  1  0  0  0
 28 23  1  0  0  0
 10 11  1  0  0  0
M  END
> <minimizedAffinity>
-8.09382

> <CNNscore>
0.2177977860

> <CNNaffinity>
6.4609184265

> <CNN_VS>
1.4071737528

> <CNNaffinity_variance>
0.1342593729

$$$$
[H]c1c(F)c(C(=O)N([H])S(=O)(=O)C2([H])C([H])([H])C2([H])[H])c([H])c(C2([H])C([H])([H])C2([H])[H])c1OC([H])([H])C1([H])C([H])([H])C([H])([H])C([H])(C(F)(F)F)C([H])([H])C1([H])[H]


 32 35  0  0  0  0  0  0  0  0999 V2000
  -87.2257   32.7304   -1.7893 C   0  0  0  0  0  0  0  0  0  0  0  0
  -86.0724   32.8467   -1.0052 C   0  0  0  0  0  0  0  0  0  0  0  0
  -85.5914   31.8463   -0.2230 C   0  0  0  0  0  0  0  0  0  0  0  0
  -86.2564   30.5914   -0.1594 C   0  0  0  0  0  0  0  0  0  0  0  0
  -87.3914   30.4947   -0.9401 C   0  0  0  0  0  0  0  0  0  0  0  0
  -87.8642   31.5370   -1.7341 C   0  0  0  0  0  0  0  0  0  0  0  0
  -88.9810   31.3337   -2.4392 F   0  0  0  0  0  0  0  0  0  0  0  0
  -88.8300   34.2639   -2.5262 O   0  0  0  0  0  0  0  0  0  0  0  0
  -87.6020   33.8831   -2.5783 C   0  0  0  0  0  0  0  0  0  0  0  0
  -86.7797   34.6508   -3.4051 N   0  0  0  0  0  0  0  0  0  0  0  0
  -85.7814   34.4586   -3.5206 H   0  0  0  0  0  0  0  0  0  0  0  0
  -87.4033   35.9974   -4.2800 S   0  0  0  0  0  0  0  0  0  0  0  0
  -88.3816   35.5297   -5.3306 O   0  0  0  0  0  0  0  0  0  0  0  0
  -86.3155   36.7507   -4.9834 O   0  0  0  0  0  0  0  0  0  0  0  0
  -88.2739   37.1087   -3.1635 C   0  0  0  0  0  0  0  0  0  0  0  0
  -87.7887   38.5145   -3.0206 C   0  0  0  0  0  0  0  0  0  0  0  0
  -88.9507   38.2538   -3.8955 C   0  0  0  0  0  0  0  0  0  0  0  0
  -84.3636   31.9963    0.6231 C   0  0  0  0  0  0  0  0  0  0  0  0
  -83.1469   31.2176    0.3700 C   0  0  0  0  0  0  0  0  0  0  0  0
  -83.1745   32.6180   -0.1182 C   0  0  0  0  0  0  0  0  0  0  0  0
  -85.7391   29.6511    0.6159 O   0  0  0  0  0  0  0  0  0  0  0  0
  -86.0095   28.7123    1.4855 C   0  0  0  0  0  0  0  0  0  0  0  0
  -87.1981   27.8324    1.4413 C   0  0  0  0  0  0  0  0  0  0  0  0
  -86.9359   26.4585    0.8542 C   0  0  0  0  0  0  0  0  0  0  0  0
  -88.2141   26.0385    0.1847 C   0  0  0  0  0  0  0  0  0  0  0  0
  -89.3633   26.0531    1.1125 C   0  0  0  0  0  0  0  0  0  0  0  0
  -89.2879   26.8222    2.3659 C   0  0  0  0  0  0  0  0  0  0  0  0
  -88.0721   27.6698    2.6056 C   0  0  0  0  0  0  0  0  0  0  0  0
  -90.6761   26.3802    0.3561 C   0  0  0  0  0  0  0  0  0  0  0  0
  -90.4428   26.7664   -0.9271 F   0  0  0  0  0  0  0  0  0  0  0  0
  -91.4693   25.2418    0.3083 F   0  0  0  0  0  0  0  0  0  0  0  0
  -91.3942   27.3250    1.0440 F   0  0  0  0  0  0  0  0  0  0  0  0
  8  9  2  0  0  0
  9 10  1  0  0  0
 10 12  1  0  0  0
 12 13  2  0  0  0
 12 14  2  0  0  0
 12 15  1  0  0  0
 15 16  1  0  0  0
 16 17  1  0  0  0
  9  1  1  0  0  0
  1  2  2  0  0  0
  2  3  1  0  0  0
  3 18  1  0  0  0
 18 19  1  0  0  0
 19 20  1  0  0  0
  3  4  2  0  0  0
  4 21  1  0  0  0
 21 22  1  0  0  0
 22 23  1  0  0  0
 23 24  1  0  0  0
 24 25  1  0  0  0
 25 26  1  0  0  0
 26 29  1  0  0  0
 29 30  1  0  0  0
 29 31  1  0  0  0
 29 32  1  0  0  0
 26 27  1  0  0  0
 27 28  1  0  0  0
  4  5  1  0  0  0
  5  6  2  0  0  0
  6  7  1  0  0  0
 17 15  1  0  0  0
  6  1  1  0  0  0
 20 18  1  0  0  0
 28 23  1  0  0  0
 10 11  1  0  0  0
M  END
> <minimizedAffinity>
-8.24578

> <CNNscore>
0.1536617726

> <CNNaffinity>
6.4846887589

> <CNN_VS>
0.9964487553

> <CNNaffinity_variance>
0.1035804600

$$$$
[H]c1c(F)c(C(=O)N([H])S(=O)(=O)C2([H])C([H])([H])C2([H])[H])c([H])c(C2([H])C([H])([H])C2([H])[H])c1OC([H])([H])C1([H])C([H])([H])C([H])([H])C([H])(C(F)(F)F)C([H])([H])C1([H])[H]


 32 35  0  0  0  0  0  0  0  0999 V2000
  -89.5077   32.2499   -2.1694 C   0  0  0  0  0  0  0  0  0  0  0  0
  -90.5937   31.5842   -2.7488 C   0  0  0  0  0  0  0  0  0  0  0  0
  -91.2161   30.5216   -2.1764 C   0  0  0  0  0  0  0  0  0  0  0  0
  -90.7818   30.0164   -0.9206 C   0  0  0  0  0  0  0  0  0  0  0  0
  -89.7101   30.6860   -0.3637 C   0  0  0  0  0  0  0  0  0  0  0  0
  -89.0888   31.7741   -0.9722 C   0  0  0  0  0  0  0  0  0  0  0  0
  -88.0511   32.3370   -0.3458 F   0  0  0  0  0  0  0  0  0  0  0  0
  -87.7277   33.3060   -3.2580 O   0  0  0  0  0  0  0  0  0  0  0  0
  -88.9615   33.3735   -2.8987 C   0  0  0  0  0  0  0  0  0  0  0  0
  -89.6220   34.5460   -3.2705 N   0  0  0  0  0  0  0  0  0  0  0  0
  -90.6082   34.7142   -3.0559 H   0  0  0  0  0  0  0  0  0  0  0  0
  -88.8077   35.7903   -4.1401 S   0  0  0  0  0  0  0  0  0  0  0  0
  -88.0091   35.1968   -5.2757 O   0  0  0  0  0  0  0  0  0  0  0  0
  -87.8519   36.5416   -3.2640 O   0  0  0  0  0  0  0  0  0  0  0  0
  -90.0043   36.9379   -4.8406 C   0  0  0  0  0  0  0  0  0  0  0  0
  -91.3614   37.0321   -4.2230 C   0  0  0  0  0  0  0  0  0  0  0  0
  -90.3581   38.0628   -3.8844 C   0  0  0  0  0  0  0  0  0  0  0  0
  -92.3673   29.8111   -2.8214 C   0  0  0  0  0  0  0  0  0  0  0  0
  -92.6689   29.9591   -4.2490 C   0  0  0  0  0  0  0  0  0  0  0  0
  -91.9438   28.7355   -3.8282 C   0  0  0  0  0  0  0  0  0  0  0  0
  -91.4295   28.9818   -0.4079 O   0  0  0  0  0  0  0  0  0  0  0  0
  -91.3020   27.8563    0.2461 C   0  0  0  0  0  0  0  0  0  0  0  0
  -90.7471   27.7273    1.6115 C   0  0  0  0  0  0  0  0  0  0  0  0
  -89.2425   27.5401    1.6586 C   0  0  0  0  0  0  0  0  0  0  0  0
  -88.9633   26.6963    2.8704 C   0  0  0  0  0  0  0  0  0  0  0  0
  -89.5030   27.2966    4.1074 C   0  0  0  0  0  0  0  0  0  0  0  0
  -90.5504   28.3286    4.0287 C   0  0  0  0  0  0  0  0  0  0  0  0
  -91.1231   28.6561    2.6800 C   0  0  0  0  0  0  0  0  0  0  0  0
  -89.9040   26.1962    5.1227 C   0  0  0  0  0  0  0  0  0  0  0  0
  -89.0197   25.1627    5.1305 F   0  0  0  0  0  0  0  0  0  0  0  0
  -89.9175   26.7394    6.4003 F   0  0  0  0  0  0  0  0  0  0  0  0
  -91.1814   25.7646    4.8709 F   0  0  0  0  0  0  0  0  0  0  0  0
  8  9  2  0  0  0
  9 10  1  0  0  0
 10 12  1  0  0  0
 12 13  2  0  0  0
 12 14  2  0  0  0
 12 15  1  0  0  0
 15 16  1  0  0  0
 16 17  1  0  0  0
  9  1  1  0  0  0
  1  2  2  0  0  0
  2  3  1  0  0  0
  3 18  1  0  0  0
 18 19  1  0  0  0
 19 20  1  0  0  0
  3  4  2  0  0  0
  4 21  1  0  0  0
 21 22  1  0  0  0
 22 23  1  0  0  0
 23 24  1  0  0  0
 24 25  1  0  0  0
 25 26  1  0  0  0
 26 29  1  0  0  0
 29 30  1  0  0  0
 29 31  1  0  0  0
 29 32  1  0  0  0
 26 27  1  0  0  0
 27 28  1  0  0  0
  4  5  1  0  0  0
  5  6  2  0  0  0
  6  7  1  0  0  0
 17 15  1  0  0  0
  6  1  1  0  0  0
 20 18  1  0  0  0
 28 23  1  0  0  0
 10 11  1  0  0  0
M  END
> <minimizedAffinity>
-7.20581

> <CNNscore>
0.1392532289

> <CNNaffinity>
5.9625000954

> <CNN_VS>
0.8302974105

> <CNNaffinity_variance>
0.1122638732

$$$$
[H]c1c(F)c(C(=O)N([H])S(=O)(=O)C2([H])C([H])([H])C2([H])[H])c([H])c(C2([H])C([H])([H])C2([H])[H])c1OC([H])([H])C1([H])C([H])([H])C([H])([H])C([H])(C(F)(F)F)C([H])([H])C1([H])[H]


 32 35  0  0  0  0  0  0  0  0999 V2000
  -89.0616   34.3383   -4.1694 C   0  0  0  0  0  0  0  0  0  0  0  0
  -89.2232   33.6909   -2.9393 C   0  0  0  0  0  0  0  0  0  0  0  0
  -88.2068   33.4728   -2.0655 C   0  0  0  0  0  0  0  0  0  0  0  0
  -86.8862   33.9046   -2.3663 C   0  0  0  0  0  0  0  0  0  0  0  0
  -86.7460   34.5420   -3.5833 C   0  0  0  0  0  0  0  0  0  0  0  0
  -87.8057   34.7532   -4.4623 C   0  0  0  0  0  0  0  0  0  0  0  0
  -87.5497   35.3712   -5.6192 F   0  0  0  0  0  0  0  0  0  0  0  0
  -91.1921   35.2389   -4.5132 O   0  0  0  0  0  0  0  0  0  0  0  0
  -90.2454   34.5054   -4.9838 C   0  0  0  0  0  0  0  0  0  0  0  0
  -90.4922   33.9591   -6.2448 N   0  0  0  0  0  0  0  0  0  0  0  0
  -89.8125   33.3697   -6.7322 H   0  0  0  0  0  0  0  0  0  0  0  0
  -91.9711   34.2634   -7.0740 S   0  0  0  0  0  0  0  0  0  0  0  0
  -91.8820   33.7708   -8.4985 O   0  0  0  0  0  0  0  0  0  0  0  0
  -92.2849   35.7278   -7.1245 O   0  0  0  0  0  0  0  0  0  0  0  0
  -93.3221   33.3905   -6.2663 C   0  0  0  0  0  0  0  0  0  0  0  0
  -94.0189   32.2955   -7.0063 C   0  0  0  0  0  0  0  0  0  0  0  0
  -92.9957   31.9311   -6.0043 C   0  0  0  0  0  0  0  0  0  0  0  0
  -88.3972   32.7620   -0.7600 C   0  0  0  0  0  0  0  0  0  0  0  0
  -89.5515   31.8921   -0.5113 C   0  0  0  0  0  0  0  0  0  0  0  0
  -88.2672   31.2379   -0.8617 C   0  0  0  0  0  0  0  0  0  0  0  0
  -85.9361   33.6697   -1.4748 O   0  0  0  0  0  0  0  0  0  0  0  0
  -84.7711   33.1098   -1.2744 C   0  0  0  0  0  0  0  0  0  0  0  0
  -84.4239   32.2692   -0.1075 C   0  0  0  0  0  0  0  0  0  0  0  0
  -82.9552   32.3023    0.2705 C   0  0  0  0  0  0  0  0  0  0  0  0
  -82.6408   30.9506    0.8472 C   0  0  0  0  0  0  0  0  0  0  0  0
  -83.5162   30.6107    1.9873 C   0  0  0  0  0  0  0  0  0  0  0  0
  -84.7885   31.3272    2.1778 C   0  0  0  0  0  0  0  0  0  0  0  0
  -85.2117   32.3122    1.1267 C   0  0  0  0  0  0  0  0  0  0  0  0
  -83.7410   29.0793    2.0701 C   0  0  0  0  0  0  0  0  0  0  0  0
  -84.4212   28.6046    0.9921 F   0  0  0  0  0  0  0  0  0  0  0  0
  -82.5092   28.4395    2.0972 F   0  0  0  0  0  0  0  0  0  0  0  0
  -84.3713   28.7578    3.2452 F   0  0  0  0  0  0  0  0  0  0  0  0
  8  9  2  0  0  0
  9 10  1  0  0  0
 10 12  1  0  0  0
 12 13  2  0  0  0
 12 14  2  0  0  0
 12 15  1  0  0  0
 15 16  1  0  0  0
 16 17  1  0  0  0
  9  1  1  0  0  0
  1  2  2  0  0  0
  2  3  1  0  0  0
  3 18  1  0  0  0
 18 19  1  0  0  0
 19 20  1  0  0  0
  3  4  2  0  0  0
  4 21  1  0  0  0
 21 22  1  0  0  0
 22 23  1  0  0  0
 23 24  1  0  0  0
 24 25  1  0  0  0
 25 26  1  0  0  0
 26 29  1  0  0  0
 29 30  1  0  0  0
 29 31  1  0  0  0
 29 32  1  0  0  0
 26 27  1  0  0  0
 27 28  1  0  0  0
  4  5  1  0  0  0
  5  6  2  0  0  0
  6  7  1  0  0  0
 17 15  1  0  0  0
  6  1  1  0  0  0
 20 18  1  0  0  0
 28 23  1  0  0  0
 10 11  1  0  0  0
M  END
> <minimizedAffinity>
-8.66554

> <CNNscore>
0.1243961751

> <CNNaffinity>
5.9682340622

> <CNN_VS>
0.7424255013

> <CNNaffinity_variance>
0.1887386739

$$$$
[H]c1c(F)c(C(=O)N([H])S(=O)(=O)C2([H])C([H])([H])C2([H])[H])c([H])c(C2([H])C([H])([H])C2([H])[H])c1OC([H])([H])C1([H])C([H])([H])C([H])([H])C([H])(C(F)(F)F)C([H])([H])C1([H])[H]


 32 35  0  0  0  0  0  0  0  0999 V2000
  -87.7486   33.7475   -2.4325 C   0  0  0  0  0  0  0  0  0  0  0  0
  -86.5509   33.7561   -1.7088 C   0  0  0  0  0  0  0  0  0  0  0  0
  -86.2302   32.8235   -0.7752 C   0  0  0  0  0  0  0  0  0  0  0  0
  -87.1233   31.7585   -0.4769 C   0  0  0  0  0  0  0  0  0  0  0  0
  -88.2992   31.7657   -1.2011 C   0  0  0  0  0  0  0  0  0  0  0  0
  -88.6043   32.7350   -2.1538 C   0  0  0  0  0  0  0  0  0  0  0  0
  -89.7788   32.6483   -2.7854 F   0  0  0  0  0  0  0  0  0  0  0  0
  -88.4385   35.9131   -2.9827 O   0  0  0  0  0  0  0  0  0  0  0  0
  -87.9373   34.8046   -3.4019 C   0  0  0  0  0  0  0  0  0  0  0  0
  -87.6348   34.7706   -4.7645 N   0  0  0  0  0  0  0  0  0  0  0  0
  -87.2196   33.9517   -5.2161 H   0  0  0  0  0  0  0  0  0  0  0  0
  -87.9320   36.1317   -5.7776 S   0  0  0  0  0  0  0  0  0  0  0  0
  -86.9260   36.1747   -6.9027 O   0  0  0  0  0  0  0  0  0  0  0  0
  -87.8140   37.4197   -5.0208 O   0  0  0  0  0  0  0  0  0  0  0  0
  -89.5748   36.0136   -6.5033 C   0  0  0  0  0  0  0  0  0  0  0  0
  -90.3191   34.7224   -6.3987 C   0  0  0  0  0  0  0  0  0  0  0  0
  -90.6576   35.8111   -5.4585 C   0  0  0  0  0  0  0  0  0  0  0  0
  -84.9492   32.8598    0.0019 C   0  0  0  0  0  0  0  0  0  0  0  0
  -83.7850   32.0554   -0.3833 C   0  0  0  0  0  0  0  0  0  0  0  0
  -83.7797   33.4890   -0.7639 C   0  0  0  0  0  0  0  0  0  0  0  0
  -86.7558   30.8754    0.4384 O   0  0  0  0  0  0  0  0  0  0  0  0
  -86.3421   29.6510    0.6392 C   0  0  0  0  0  0  0  0  0  0  0  0
  -87.0357   28.4332    0.1650 C   0  0  0  0  0  0  0  0  0  0  0  0
  -86.9876   28.2330   -1.3379 C   0  0  0  0  0  0  0  0  0  0  0  0
  -88.2620   27.5272   -1.7072 C   0  0  0  0  0  0  0  0  0  0  0  0
  -88.4353   26.2605   -0.9677 C   0  0  0  0  0  0  0  0  0  0  0  0
  -87.6723   26.0193    0.2685 C   0  0  0  0  0  0  0  0  0  0  0  0
  -86.8193   27.1328    0.8037 C   0  0  0  0  0  0  0  0  0  0  0  0
  -89.9385   25.9566   -0.7427 C   0  0  0  0  0  0  0  0  0  0  0  0
  -90.3412   24.8467   -1.4182 F   0  0  0  0  0  0  0  0  0  0  0  0
  -90.1580   25.7220    0.6079 F   0  0  0  0  0  0  0  0  0  0  0  0
  -90.6959   27.0510   -1.0746 F   0  0  0  0  0  0  0  0  0  0  0  0
  8  9  2  0  0  0
  9 10  1  0  0  0
 10 12  1  0  0  0
 12 13  2  0  0  0
 12 14  2  0  0  0
 12 15  1  0  0  0
 15 16  1  0  0  0
 16 17  1  0  0  0
  9  1  1  0  0  0
  1  2  2  0  0  0
  2  3  1  0  0  0
  3 18  1  0  0  0
 18 19  1  0  0  0
 19 20  1  0  0  0
  3  4  2  0  0  0
  4 21  1  0  0  0
 21 22  1  0  0  0
 22 23  1  0  0  0
 23 24  1  0  0  0
 24 25  1  0  0  0
 25 26  1  0  0  0
 26 29  1  0  0  0
 29 30  1  0  0  0
 29 31  1  0  0  0
 29 32  1  0  0  0
 26 27  1  0  0  0
 27 28  1  0  0  0
  4  5  1  0  0  0
  5  6  2  0  0  0
  6  7  1  0  0  0
 17 15  1  0  0  0
  6  1  1  0  0  0
 20 18  1  0  0  0
 28 23  1  0  0  0
 10 11  1  0  0  0
M  END
> <minimizedAffinity>
-7.64814

> <CNNscore>
0.0810259655

> <CNNaffinity>
5.9347052574

> <CNN_VS>
0.4808652103

> <CNNaffinity_variance>
0.2522451878

$$$$
[H]c1c(F)c(C(=O)N([H])S(=O)(=O)C2([H])C([H])([H])C2([H])[H])c([H])c(C2([H])C([H])([H])C2([H])[H])c1OC([H])([H])C1([H])C([H])([H])C([H])([H])C([H])(C(F)(F)F)C([H])([H])C1([H])[H]


 32 35  0  0  0  0  0  0  0  0999 V2000
  -87.9129   28.8759    0.3525 C   0  0  0  0  0  0  0  0  0  0  0  0
  -86.7080   29.3670    0.8675 C   0  0  0  0  0  0  0  0  0  0  0  0
  -86.1930   30.5818    0.5463 C   0  0  0  0  0  0  0  0  0  0  0  0
  -86.8735   31.4423   -0.3578 C   0  0  0  0  0  0  0  0  0  0  0  0
  -88.0607   30.9416   -0.8548 C   0  0  0  0  0  0  0  0  0  0  0  0
  -88.5673   29.6909   -0.5092 C   0  0  0  0  0  0  0  0  0  0  0  0
  -89.7208   29.3048   -1.0624 F   0  0  0  0  0  0  0  0  0  0  0  0
  -87.4155   26.7278    1.1318 O   0  0  0  0  0  0  0  0  0  0  0  0
  -88.3337   27.5667    0.8019 C   0  0  0  0  0  0  0  0  0  0  0  0
  -89.6407   27.0917    0.9264 N   0  0  0  0  0  0  0  0  0  0  0  0
  -90.4586   27.6664    0.7084 H   0  0  0  0  0  0  0  0  0  0  0  0
  -89.9584   25.4911    1.4784 S   0  0  0  0  0  0  0  0  0  0  0  0
  -89.1125   24.4987    0.7173 O   0  0  0  0  0  0  0  0  0  0  0  0
  -91.3928   25.1099    1.2711 O   0  0  0  0  0  0  0  0  0  0  0  0
  -89.5487   25.3483    3.2252 C   0  0  0  0  0  0  0  0  0  0  0  0
  -89.6445   26.5622    4.0907 C   0  0  0  0  0  0  0  0  0  0  0  0
  -90.7498   25.5821    4.1240 C   0  0  0  0  0  0  0  0  0  0  0  0
  -84.8917   31.0828    1.0955 C   0  0  0  0  0  0  0  0  0  0  0  0
  -83.8907   30.1765    1.6678 C   0  0  0  0  0  0  0  0  0  0  0  0
  -83.6687   30.6489    0.2795 C   0  0  0  0  0  0  0  0  0  0  0  0
  -86.3272   32.6170   -0.6301 O   0  0  0  0  0  0  0  0  0  0  0  0
  -86.4280   33.7028   -1.3524 C   0  0  0  0  0  0  0  0  0  0  0  0
  -87.3181   33.8625   -2.5233 C   0  0  0  0  0  0  0  0  0  0  0  0
  -87.4331   35.2878   -3.0299 C   0  0  0  0  0  0  0  0  0  0  0  0
  -88.8185   35.4200   -3.5971 C   0  0  0  0  0  0  0  0  0  0  0  0
  -89.0921   34.4173   -4.6465 C   0  0  0  0  0  0  0  0  0  0  0  0
  -88.2598   33.2063   -4.7427 C   0  0  0  0  0  0  0  0  0  0  0  0
  -87.2207   32.9743   -3.6841 C   0  0  0  0  0  0  0  0  0  0  0  0
  -90.5959   34.0424   -4.6698 C   0  0  0  0  0  0  0  0  0  0  0  0
  -91.3866   35.0820   -4.2901 F   0  0  0  0  0  0  0  0  0  0  0  0
  -90.9587   33.6974   -5.9647 F   0  0  0  0  0  0  0  0  0  0  0  0
  -90.8175   32.9319   -3.8957 F   0  0  0  0  0  0  0  0  0  0  0  0
  8  9  2  0  0  0
  9 10  1  0  0  0
 10 12  1  0  0  0
 12 13  2  0  0  0
 12 14  2  0  0  0
 12 15  1  0  0  0
 15 16  1  0  0  0
 16 17  1  0  0  0
  9  1  1  0  0  0
  1  2  2  0  0  0
  2  3  1  0  0  0
  3 18  1  0  0  0
 18 19  1  0  0  0
 19 20  1  0  0  0
  3  4  2  0  0  0
  4 21  1  0  0  0
 21 22  1  0  0  0
 22 23  1  0  0  0
 23 24  1  0  0  0
 24 25  1  0  0  0
 25 26  1  0  0  0
 26 29  1  0  0  0
 29 30  1  0  0  0
 29 31  1  0  0  0
 29 32  1  0  0  0
 26 27  1  0  0  0
 27 28  1  0  0  0
  4  5  1  0  0  0
  5  6  2  0  0  0
  6  7  1  0  0  0
 17 15  1  0  0  0
  6  1  1  0  0  0
 20 18  1  0  0  0
 28 23  1  0  0  0
 10 11  1  0  0  0
M  END
> <minimizedAffinity>
-7.59957

> <CNNscore>
0.0763010904

> <CNNaffinity>
6.3625764847

> <CNN_VS>
0.4854715168

> <CNNaffinity_variance>
0.2444532663

$$$$
[H]c1c(F)c(C(=O)N([H])S(=O)(=O)C2([H])C([H])([H])C2([H])[H])c([H])c(C2([H])C([H])([H])C2([H])[H])c1OC([H])([H])C1([H])C([H])([H])C([H])([H])C([H])(C(F)(F)F)C([H])([H])C1([H])[H]


 32 35  0  0  0  0  0  0  0  0999 V2000
  -89.4548   31.1292   -3.6198 C   0  0  0  0  0  0  0  0  0  0  0  0
  -90.1607   30.4824   -2.5992 C   0  0  0  0  0  0  0  0  0  0  0  0
  -89.6587   29.4475   -1.8774 C   0  0  0  0  0  0  0  0  0  0  0  0
  -88.3498   28.9538   -2.1306 C   0  0  0  0  0  0  0  0  0  0  0  0
  -87.6682   29.6046   -3.1401 C   0  0  0  0  0  0  0  0  0  0  0  0
  -88.2065   30.6644   -3.8662 C   0  0  0  0  0  0  0  0  0  0  0  0
  -87.4588   31.2106   -4.8298 F   0  0  0  0  0  0  0  0  0  0  0  0
  -91.1789   31.9489   -4.9705 O   0  0  0  0  0  0  0  0  0  0  0  0
  -90.1233   32.2244   -4.2881 C   0  0  0  0  0  0  0  0  0  0  0  0
  -89.7581   33.5719   -4.2826 N   0  0  0  0  0  0  0  0  0  0  0  0
  -88.9463   33.9203   -3.7662 H   0  0  0  0  0  0  0  0  0  0  0  0
  -90.6760   34.7477   -5.1443 S   0  0  0  0  0  0  0  0  0  0  0  0
  -90.2167   36.1389   -4.7791 O   0  0  0  0  0  0  0  0  0  0  0  0
  -92.1356   34.6569   -4.8174 O   0  0  0  0  0  0  0  0  0  0  0  0
  -90.4460   34.5323   -6.9163 C   0  0  0  0  0  0  0  0  0  0  0  0
  -91.6199   34.1432   -7.7546 C   0  0  0  0  0  0  0  0  0  0  0  0
  -91.2088   35.5624   -7.7300 C   0  0  0  0  0  0  0  0  0  0  0  0
  -90.4373   28.7565   -0.7994 C   0  0  0  0  0  0  0  0  0  0  0  0
  -91.8774   28.9713   -0.6232 C   0  0  0  0  0  0  0  0  0  0  0  0
  -91.4530   27.7369   -1.3277 C   0  0  0  0  0  0  0  0  0  0  0  0
  -87.9106   27.9465   -1.3923 O   0  0  0  0  0  0  0  0  0  0  0  0
  -87.2445   27.6196   -0.3152 C   0  0  0  0  0  0  0  0  0  0  0  0
  -86.3311   28.5196    0.4227 C   0  0  0  0  0  0  0  0  0  0  0  0
  -86.8173   29.9527    0.5276 C   0  0  0  0  0  0  0  0  0  0  0  0
  -85.5847   30.8121    0.5535 C   0  0  0  0  0  0  0  0  0  0  0  0
  -84.6652   30.4396    1.6477 C   0  0  0  0  0  0  0  0  0  0  0  0
  -84.7779   29.1176    2.2863 C   0  0  0  0  0  0  0  0  0  0  0  0
  -85.7622   28.1370    1.7172 C   0  0  0  0  0  0  0  0  0  0  0  0
  -83.1942   30.7238    1.2501 C   0  0  0  0  0  0  0  0  0  0  0  0
  -82.3334   29.8300    1.8072 F   0  0  0  0  0  0  0  0  0  0  0  0
  -83.0669   30.6177   -0.1282 F   0  0  0  0  0  0  0  0  0  0  0  0
  -82.8591   32.0143    1.5726 F   0  0  0  0  0  0  0  0  0  0  0  0
  8  9  2  0  0  0
  9 10  1  0  0  0
 10 12  1  0  0  0
 12 13  2  0  0  0
 12 14  2  0  0  0
 12 15  1  0  0  0
 15 16  1  0  0  0
 16 17  1  0  0  0
  9  1  1  0  0  0
  1  2  2  0  0  0
  2  3  1  0  0  0
  3 18  1  0  0  0
 18 19  1  0  0  0
 19 20  1  0  0  0
  3  4  2  0  0  0
  4 21  1  0  0  0
 21 22  1  0  0  0
 22 23  1  0  0  0
 23 24  1  0  0  0
 24 25  1  0  0  0
 25 26  1  0  0  0
 26 29  1  0  0  0
 29 30  1  0  0  0
 29 31  1  0  0  0
 29 32  1  0  0  0
 26 27  1  0  0  0
 27 28  1  0  0  0
  4  5  1  0  0  0
  5  6  2  0  0  0
  6  7  1  0  0  0
 17 15  1  0  0  0
  6  1  1  0  0  0
 20 18  1  0  0  0
 28 23  1  0  0  0
 10 11  1  0  0  0
M  END
> <minimizedAffinity>
-7.90397

> <CNNscore>
0.0704409331

> <CNNaffinity>
5.9022393227

> <CNN_VS>
0.4157592356

> <CNNaffinity_variance>
0.1902361959

$$$$
[H]c1c(F)c(C(=O)N([H])S(=O)(=O)C2([H])C([H])([H])C2([H])[H])c([H])c(C2([H])C([H])([H])C2([H])[H])c1OC([H])([H])C1([H])C([H])([H])C([H])([H])C([H])(C(F)(F)F)C([H])([H])C1([H])[H]


 32 35  0  0  0  0  0  0  0  0999 V2000
  -90.0116   32.5593   -3.7694 C   0  0  0  0  0  0  0  0  0  0  0  0
  -89.7033   31.9488   -2.5485 C   0  0  0  0  0  0  0  0  0  0  0  0
  -88.5823   32.2234   -1.8329 C   0  0  0  0  0  0  0  0  0  0  0  0
  -87.6361   33.1745   -2.3032 C   0  0  0  0  0  0  0  0  0  0  0  0
  -87.9574   33.7671   -3.5085 C   0  0  0  0  0  0  0  0  0  0  0  0
  -89.1146   33.4673   -4.2234 C   0  0  0  0  0  0  0  0  0  0  0  0
  -89.3161   34.0948   -5.3859 F   0  0  0  0  0  0  0  0  0  0  0  0
  -91.9271   31.2206   -3.8555 O   0  0  0  0  0  0  0  0  0  0  0  0
  -91.2513   32.1681   -4.4042 C   0  0  0  0  0  0  0  0  0  0  0  0
  -91.8179   32.7043   -5.5622 N   0  0  0  0  0  0  0  0  0  0  0  0
  -91.3848   33.4710   -6.0831 H   0  0  0  0  0  0  0  0  0  0  0  0
  -93.3107   32.1086   -6.1821 S   0  0  0  0  0  0  0  0  0  0  0  0
  -94.4547   32.5469   -5.2995 O   0  0  0  0  0  0  0  0  0  0  0  0
  -93.3301   30.6110   -6.2311 O   0  0  0  0  0  0  0  0  0  0  0  0
  -93.5983   32.7641   -7.8335 C   0  0  0  0  0  0  0  0  0  0  0  0
  -94.3209   34.0637   -7.9786 C   0  0  0  0  0  0  0  0  0  0  0  0
  -92.8468   34.0596   -8.0827 C   0  0  0  0  0  0  0  0  0  0  0  0
  -88.2614   31.5460   -0.5352 C   0  0  0  0  0  0  0  0  0  0  0  0
  -88.9214   30.3021   -0.1253 C   0  0  0  0  0  0  0  0  0  0  0  0
  -87.5589   30.1936   -0.7013 C   0  0  0  0  0  0  0  0  0  0  0  0
  -86.5643   33.4058   -1.5613 O   0  0  0  0  0  0  0  0  0  0  0  0
  -85.2888   33.1554   -1.4158 C   0  0  0  0  0  0  0  0  0  0  0  0
  -84.6968   32.3932   -0.2945 C   0  0  0  0  0  0  0  0  0  0  0  0
  -83.1829   32.4588   -0.2257 C   0  0  0  0  0  0  0  0  0  0  0  0
  -82.7331   31.1487    0.3570 C   0  0  0  0  0  0  0  0  0  0  0  0
  -83.3530   30.8773    1.6699 C   0  0  0  0  0  0  0  0  0  0  0  0
  -84.5734   31.5972    2.0708 C   0  0  0  0  0  0  0  0  0  0  0  0
  -85.2191   32.5104    1.0691 C   0  0  0  0  0  0  0  0  0  0  0  0
  -83.5278   29.3531    1.8907 C   0  0  0  0  0  0  0  0  0  0  0  0
  -84.1927   28.7617    0.8619 F   0  0  0  0  0  0  0  0  0  0  0  0
  -82.2758   28.7586    1.9710 F   0  0  0  0  0  0  0  0  0  0  0  0
  -84.1467   29.1182    3.0920 F   0  0  0  0  0  0  0  0  0  0  0  0
  8  9  2  0  0  0
  9 10  1  0  0  0
 10 12  1  0  0  0
 12 13  2  0  0  0
 12 14  2  0  0  0
 12 15  1  0  0  0
 15 16  1  0  0  0
 16 17  1  0  0  0
  9  1  1  0  0  0
  1  2  2  0  0  0
  2  3  1  0  0  0
  3 18  1  0  0  0
 18 19  1  0  0  0
 19 20  1  0  0  0
  3  4  2  0  0  0
  4 21  1  0  0  0
 21 22  1  0  0  0
 22 23  1  0  0  0
 23 24  1  0  0  0
 24 25  1  0  0  0
 25 26  1  0  0  0
 26 29  1  0  0  0
 29 30  1  0  0  0
 29 31  1  0  0  0
 29 32  1  0  0  0
 26 27  1  0  0  0
 27 28  1  0  0  0
  4  5  1  0  0  0
  5  6  2  0  0  0
  6  7  1  0  0  0
 17 15  1  0  0  0
  6  1  1  0  0  0
 20 18  1  0  0  0
 28 23  1  0  0  0
 10 11  1  0  0  0
M  END
> <minimizedAffinity>
-8.02003

> <CNNscore>
0.0690595508

> <CNNaffinity>
5.7875356674

> <CNN_VS>
0.3996846080

> <CNNaffinity_variance>
0.1908126622

$$$$
[H]OC(=O)C1=C([H])[C@@]([H])(O[C@@]([H])(C([H])([H])C([H])([H])[H])C([H])([H])C([H])([H])C([H])([H])C([H])([H])C([H])([H])C([H])([H])C([H])([H])[H])[C@]([H])(N([H])C(=O)C([H])([H])[H])[C@@]([H])(N([H])[H])C1([H])[H]


 29 29  0  0  0  0  0  0  0  0999 V2000
  -87.8589   31.5344   -0.9651 C   0  0  0  0  0  0  0  0  0  0  0  0
  -88.2127   31.6466   -2.4355 C   0  0  0  0  0  0  0  0  0  0  0  0
  -88.1512   32.8551   -2.9955 C   0  0  0  0  0  0  0  0  0  0  0  0
  -87.7053   33.9334   -2.0343 C   0  0  0  0  0  0  0  0  0  0  0  0
  -86.3558   33.4706   -1.5487 C   0  0  0  0  0  0  0  0  0  0  0  0
  -85.4015   33.4871   -2.6532 N   0  0  0  0  0  0  0  0  0  0  0  0
  -86.4585   32.1048   -0.9277 C   0  0  0  0  0  0  0  0  0  0  0  0
  -85.7846   34.0025   -3.4758 H   0  0  0  0  0  0  0  0  0  0  0  0
  -84.5183   33.9857   -2.3303 H   0  0  0  0  0  0  0  0  0  0  0  0
  -85.9043   32.2340    0.4004 N   0  0  0  0  0  0  0  0  0  0  0  0
  -84.9920   31.3049    0.9442 C   0  0  0  0  0  0  0  0  0  0  0  0
  -84.4191   31.4295    2.3049 C   0  0  0  0  0  0  0  0  0  0  0  0
  -84.6452   30.3223    0.2444 O   0  0  0  0  0  0  0  0  0  0  0  0
  -86.1975   33.0515    0.9736 H   0  0  0  0  0  0  0  0  0  0  0  0
  -88.4450   33.1739   -4.3597 C   0  0  0  0  0  0  0  0  0  0  0  0
  -89.3960   32.6512   -5.0060 O   0  0  0  0  0  0  0  0  0  0  0  0
  -87.6414   34.1109   -5.0143 O   0  0  0  0  0  0  0  0  0  0  0  0
  -88.1269   34.7425   -5.6583 H   0  0  0  0  0  0  0  0  0  0  0  0
  -87.9425   30.2316   -0.6105 O   0  0  0  0  0  0  0  0  0  0  0  0
  -89.1369   29.5542   -0.8763 C   0  0  0  0  0  0  0  0  0  0  0  0
  -88.9990   28.1578   -1.3375 C   0  0  0  0  0  0  0  0  0  0  0  0
  -87.5536   27.6760   -1.1989 C   0  0  0  0  0  0  0  0  0  0  0  0
  -90.1526   29.7395    0.1635 C   0  0  0  0  0  0  0  0  0  0  0  0
  -91.1176   28.7249    0.5881 C   0  0  0  0  0  0  0  0  0  0  0  0
  -90.8161   27.9783    1.8163 C   0  0  0  0  0  0  0  0  0  0  0  0
  -91.2425   28.8343    3.0602 C   0  0  0  0  0  0  0  0  0  0  0  0
  -90.4721   28.2258    4.2146 C   0  0  0  0  0  0  0  0  0  0  0  0
  -89.9363   25.9225    4.7889 C   0  0  0  0  0  0  0  0  0  0  0  0
  -89.6878   27.0175    3.7976 C   0  0  0  0  0  0  0  0  0  0  0  0
 28 29  1  0  0  0
 29 27  1  0  0  0
 27 26  1  0  0  0
 26 25  1  0  0  0
 25 24  1  0  0  0
 24 23  1  0  0  0
 23 20  1  0  0  0
 20 21  1  0  0  0
 21 22  1  0  0  0
 20 19  1  0  0  0
 19  1  1  0  0  0
  1  2  1  0  0  0
  2  3  2  0  0  0
  3 15  1  0  0  0
 15 16  2  0  0  0
 15 17  1  0  0  0
  3  4  1  0  0  0
  4  5  1  0  0  0
  5  6  1  0  0  0
  5  7  1  0  0  0
  7 10  1  0  0  0
 10 11  1  0  0  0
 11 12  1  0  0  0
 11 13  2  0  0  0
  7  1  1  0  0  0
 17 18  1  0  0  0
  6  8  1  0  0  0
  6  9  1  0  0  0
 10 14  1  0  0  0
M  END
> <minimizedAffinity>
-6.10577

> <CNNscore>
0.4292172194

> <CNNaffinity>
5.9847440720

> <CNN_VS>
2.5687551498

> <CNNaffinity_variance>
0.1349057853

$$$$
[H]OC(=O)C1=C([H])[C@@]([H])(O[C@@]([H])(C([H])([H])C([H])([H])[H])C([H])([H])C([H])([H])C([H])([H])C([H])([H])C([H])([H])C([H])([H])C([H])([H])[H])[C@]([H])(N([H])C(=O)C([H])([H])[H])[C@@]([H])(N([H])[H])C1([H])[H]


 29 29  0  0  0  0  0  0  0  0999 V2000
  -89.5044   25.8925    0.7623 C   0  0  0  0  0  0  0  0  0  0  0  0
  -90.5036   24.8366    1.1944 C   0  0  0  0  0  0  0  0  0  0  0  0
  -91.4051   24.4350    0.2978 C   0  0  0  0  0  0  0  0  0  0  0  0
  -91.2527   25.1152   -1.0437 C   0  0  0  0  0  0  0  0  0  0  0  0
  -89.8468   24.7860   -1.4754 C   0  0  0  0  0  0  0  0  0  0  0  0
  -89.7308   23.3529   -1.7278 N   0  0  0  0  0  0  0  0  0  0  0  0
  -88.8560   25.2468   -0.4422 C   0  0  0  0  0  0  0  0  0  0  0  0
  -90.6696   22.8982   -1.7625 H   0  0  0  0  0  0  0  0  0  0  0  0
  -89.2582   23.2123   -2.6711 H   0  0  0  0  0  0  0  0  0  0  0  0
  -87.9238   26.0990   -1.1438 N   0  0  0  0  0  0  0  0  0  0  0  0
  -88.1976   27.4500   -1.4456 C   0  0  0  0  0  0  0  0  0  0  0  0
  -87.2476   28.3307   -2.1647 C   0  0  0  0  0  0  0  0  0  0  0  0
  -89.2993   27.9344   -1.0894 O   0  0  0  0  0  0  0  0  0  0  0  0
  -87.0130   25.6889   -1.4355 H   0  0  0  0  0  0  0  0  0  0  0  0
  -92.4291   23.4565    0.5042 C   0  0  0  0  0  0  0  0  0  0  0  0
  -92.7592   23.0260    1.6449 O   0  0  0  0  0  0  0  0  0  0  0  0
  -93.1013   22.9482   -0.6104 O   0  0  0  0  0  0  0  0  0  0  0  0
  -94.1029   22.7734   -0.4859 H   0  0  0  0  0  0  0  0  0  0  0  0
  -88.6622   26.1226    1.7955 O   0  0  0  0  0  0  0  0  0  0  0  0
  -88.6109   27.4161    2.3252 C   0  0  0  0  0  0  0  0  0  0  0  0
  -89.2300   27.5953    3.6541 C   0  0  0  0  0  0  0  0  0  0  0  0
  -90.7189   27.9224    3.5244 C   0  0  0  0  0  0  0  0  0  0  0  0
  -87.2940   28.0451    2.1929 C   0  0  0  0  0  0  0  0  0  0  0  0
  -86.1251   27.4274    1.5659 C   0  0  0  0  0  0  0  0  0  0  0  0
  -84.8438   27.5322    2.2757 C   0  0  0  0  0  0  0  0  0  0  0  0
  -84.5671   29.0366    2.6250 C   0  0  0  0  0  0  0  0  0  0  0  0
  -84.1088   29.6463    1.3155 C   0  0  0  0  0  0  0  0  0  0  0  0
  -82.7386   31.4062    0.3422 C   0  0  0  0  0  0  0  0  0  0  0  0
  -82.8347   30.4225    1.4675 C   0  0  0  0  0  0  0  0  0  0  0  0
 28 29  1  0  0  0
 29 27  1  0  0  0
 27 26  1  0  0  0
 26 25  1  0  0  0
 25 24  1  0  0  0
 24 23  1  0  0  0
 23 20  1  0  0  0
 20 21  1  0  0  0
 21 22  1  0  0  0
 20 19  1  0  0  0
 19  1  1  0  0  0
  1  2  1  0  0  0
  2  3  2  0  0  0
  3 15  1  0  0  0
 15 16  2  0  0  0
 15 17  1  0  0  0
  3  4  1  0  0  0
  4  5  1  0  0  0
  5  6  1  0  0  0
  5  7  1  0  0  0
  7 10  1  0  0  0
 10 11  1  0  0  0
 11 12  1  0  0  0
 11 13  2  0  0  0
  7  1  1  0  0  0
 17 18  1  0  0  0
  6  8  1  0  0  0
  6  9  1  0  0  0
 10 14  1  0  0  0
M  END
> <minimizedAffinity>
-6.76234

> <CNNscore>
0.3518763483

> <CNNaffinity>
5.5751523972

> <CNN_VS>
1.9617642164

> <CNNaffinity_variance>
0.3010632396

$$$$
[H]OC(=O)C1=C([H])[C@@]([H])(O[C@@]([H])(C([H])([H])C([H])([H])[H])C([H])([H])C([H])([H])C([H])([H])C([H])([H])C([H])([H])C([H])([H])C([H])([H])[H])[C@]([H])(N([H])C(=O)C([H])([H])[H])[C@@]([H])(N([H])[H])C1([H])[H]


 29 29  0  0  0  0  0  0  0  0999 V2000
  -87.5001   31.8111   -0.4850 C   0  0  0  0  0  0  0  0  0  0  0  0
  -88.3894   31.6968   -1.7081 C   0  0  0  0  0  0  0  0  0  0  0  0
  -88.6010   32.8018   -2.4239 C   0  0  0  0  0  0  0  0  0  0  0  0
  -87.8750   34.0107   -1.8790 C   0  0  0  0  0  0  0  0  0  0  0  0
  -86.4221   33.6104   -1.8812 C   0  0  0  0  0  0  0  0  0  0  0  0
  -85.9592   33.4400   -3.2551 N   0  0  0  0  0  0  0  0  0  0  0  0
  -86.2181   32.3602   -1.0706 C   0  0  0  0  0  0  0  0  0  0  0  0
  -86.6489   33.8259   -3.9367 H   0  0  0  0  0  0  0  0  0  0  0  0
  -85.0438   33.9704   -3.3722 H   0  0  0  0  0  0  0  0  0  0  0  0
  -85.2089   32.6876   -0.0899 N   0  0  0  0  0  0  0  0  0  0  0  0
  -84.1540   31.8127    0.2461 C   0  0  0  0  0  0  0  0  0  0  0  0
  -83.1151   32.1403    1.2505 C   0  0  0  0  0  0  0  0  0  0  0  0
  -84.0879   30.7004   -0.3317 O   0  0  0  0  0  0  0  0  0  0  0  0
  -85.2716   33.6117    0.3843 H   0  0  0  0  0  0  0  0  0  0  0  0
  -89.4042   32.9073   -3.6039 C   0  0  0  0  0  0  0  0  0  0  0  0
  -90.5593   32.4066   -3.7053 O   0  0  0  0  0  0  0  0  0  0  0  0
  -88.8883   33.5990   -4.7030 O   0  0  0  0  0  0  0  0  0  0  0  0
  -89.5609   34.1634   -5.2306 H   0  0  0  0  0  0  0  0  0  0  0  0
  -87.3824   30.5812    0.0658 O   0  0  0  0  0  0  0  0  0  0  0  0
  -88.0000   29.5084   -0.5851 C   0  0  0  0  0  0  0  0  0  0  0  0
  -87.2210   28.8743   -1.6680 C   0  0  0  0  0  0  0  0  0  0  0  0
  -88.1179   28.0029   -2.5493 C   0  0  0  0  0  0  0  0  0  0  0  0
  -88.6257   28.5544    0.3345 C   0  0  0  0  0  0  0  0  0  0  0  0
  -87.9544   27.9094    1.4634 C   0  0  0  0  0  0  0  0  0  0  0  0
  -87.1308   26.7285    1.1741 C   0  0  0  0  0  0  0  0  0  0  0  0
  -85.7595   26.8570    1.9256 C   0  0  0  0  0  0  0  0  0  0  0  0
  -85.2997   28.2695    1.6257 C   0  0  0  0  0  0  0  0  0  0  0  0
  -82.9792   28.5082    2.3186 C   0  0  0  0  0  0  0  0  0  0  0  0
  -84.3973   28.8102    2.6944 C   0  0  0  0  0  0  0  0  0  0  0  0
 28 29  1  0  0  0
 29 27  1  0  0  0
 27 26  1  0  0  0
 26 25  1  0  0  0
 25 24  1  0  0  0
 24 23  1  0  0  0
 23 20  1  0  0  0
 20 21  1  0  0  0
 21 22  1  0  0  0
 20 19  1  0  0  0
 19  1  1  0  0  0
  1  2  1  0  0  0
  2  3  2  0  0  0
  3 15  1  0  0  0
 15 16  2  0  0  0
 15 17  1  0  0  0
  3  4  1  0  0  0
  4  5  1  0  0  0
  5  6  1  0  0  0
  5  7  1  0  0  0
  7 10  1  0  0  0
 10 11  1  0  0  0
 11 12  1  0  0  0
 11 13  2  0  0  0
  7  1  1  0  0  0
 17 18  1  0  0  0
  6  8  1  0  0  0
  6  9  1  0  0  0
 10 14  1  0  0  0
M  END
> <minimizedAffinity>
-6.32191

> <CNNscore>
0.2707245350

> <CNNaffinity>
5.8271646500

> <CNN_VS>
1.5775564909

> <CNNaffinity_variance>
0.2116375417

$$$$
[H]OC(=O)C1=C([H])[C@@]([H])(O[C@@]([H])(C([H])([H])C([H])([H])[H])C([H])([H])C([H])([H])C([H])([H])C([H])([H])C([H])([H])C([H])([H])C([H])([H])[H])[C@]([H])(N([H])C(=O)C([H])([H])[H])[C@@]([H])(N([H])[H])C1([H])[H]


 29 29  0  0  0  0  0  0  0  0999 V2000
  -87.4293   29.0465   -0.6293 C   0  0  0  0  0  0  0  0  0  0  0  0
  -86.1226   28.8670    0.1192 C   0  0  0  0  0  0  0  0  0  0  0  0
  -86.1834   28.3936    1.3642 C   0  0  0  0  0  0  0  0  0  0  0  0
  -87.5939   28.0917    1.8169 C   0  0  0  0  0  0  0  0  0  0  0  0
  -88.1068   27.0933    0.8113 C   0  0  0  0  0  0  0  0  0  0  0  0
  -87.3620   25.8437    0.9325 N   0  0  0  0  0  0  0  0  0  0  0  0
  -88.0204   27.6549   -0.5811 C   0  0  0  0  0  0  0  0  0  0  0  0
  -86.7906   25.8276    1.8058 H   0  0  0  0  0  0  0  0  0  0  0  0
  -88.0565   25.0382    0.9748 H   0  0  0  0  0  0  0  0  0  0  0  0
  -89.3538   27.5561   -1.1285 N   0  0  0  0  0  0  0  0  0  0  0  0
  -89.8634   26.3690   -1.6964 C   0  0  0  0  0  0  0  0  0  0  0  0
  -91.2292   26.2589   -2.2600 C   0  0  0  0  0  0  0  0  0  0  0  0
  -89.1270   25.3531   -1.7281 O   0  0  0  0  0  0  0  0  0  0  0  0
  -89.9573   28.4032   -1.0981 H   0  0  0  0  0  0  0  0  0  0  0  0
  -85.0736   28.1541    2.2359 C   0  0  0  0  0  0  0  0  0  0  0  0
  -84.4940   29.0663    2.8896 O   0  0  0  0  0  0  0  0  0  0  0  0
  -84.6037   26.8455    2.3744 O   0  0  0  0  0  0  0  0  0  0  0  0
  -84.2987   26.5782    3.3150 H   0  0  0  0  0  0  0  0  0  0  0  0
  -87.1432   29.4905   -1.8746 O   0  0  0  0  0  0  0  0  0  0  0  0
  -87.7521   30.6735   -2.3058 C   0  0  0  0  0  0  0  0  0  0  0  0
  -88.6484   30.5507   -3.4733 C   0  0  0  0  0  0  0  0  0  0  0  0
  -88.0877   31.3121   -4.6760 C   0  0  0  0  0  0  0  0  0  0  0  0
  -88.3084   31.4722   -1.2105 C   0  0  0  0  0  0  0  0  0  0  0  0
  -87.8433   32.8030   -0.8184 C   0  0  0  0  0  0  0  0  0  0  0  0
  -86.4671   33.1699   -1.1766 C   0  0  0  0  0  0  0  0  0  0  0  0
  -85.4805   32.5880   -0.1044 C   0  0  0  0  0  0  0  0  0  0  0  0
  -84.1201   33.1027   -0.5297 C   0  0  0  0  0  0  0  0  0  0  0  0
  -82.9930   31.6468    1.0615 C   0  0  0  0  0  0  0  0  0  0  0  0
  -83.0485   32.0650   -0.3757 C   0  0  0  0  0  0  0  0  0  0  0  0
 28 29  1  0  0  0
 29 27  1  0  0  0
 27 26  1  0  0  0
 26 25  1  0  0  0
 25 24  1  0  0  0
 24 23  1  0  0  0
 23 20  1  0  0  0
 20 21  1  0  0  0
 21 22  1  0  0  0
 20 19  1  0  0  0
 19  1  1  0  0  0
  1  2  1  0  0  0
  2  3  2  0  0  0
  3 15  1  0  0  0
 15 16  2  0  0  0
 15 17  1  0  0  0
  3  4  1  0  0  0
  4  5  1  0  0  0
  5  6  1  0  0  0
  5  7  1  0  0  0
  7 10  1  0  0  0
 10 11  1  0  0  0
 11 12  1  0  0  0
 11 13  2  0  0  0
  7  1  1  0  0  0
 17 18  1  0  0  0
  6  8  1  0  0  0
  6  9  1  0  0  0
 10 14  1  0  0  0
M  END
> <minimizedAffinity>
-6.90609

> <CNNscore>
0.2694874704

> <CNNaffinity>
5.6273365021

> <CNN_VS>
1.5164966583

> <CNNaffinity_variance>
0.5392346382

$$$$
[H]OC(=O)C1=C([H])[C@@]([H])(O[C@@]([H])(C([H])([H])C([H])([H])[H])C([H])([H])C([H])([H])C([H])([H])C([H])([H])C([H])([H])C([H])([H])C([H])([H])[H])[C@]([H])(N([H])C(=O)C([H])([H])[H])[C@@]([H])(N([H])[H])C1([H])[H]


 29 29  0  0  0  0  0  0  0  0999 V2000
  -87.8550   29.9205   -0.7837 C   0  0  0  0  0  0  0  0  0  0  0  0
  -87.0268   28.7319   -0.3352 C   0  0  0  0  0  0  0  0  0  0  0  0
  -87.6244   27.8137    0.4249 C   0  0  0  0  0  0  0  0  0  0  0  0
  -89.0787   28.1234    0.6980 C   0  0  0  0  0  0  0  0  0  0  0  0
  -89.7072   28.2161   -0.6686 C   0  0  0  0  0  0  0  0  0  0  0  0
  -89.6819   26.9067   -1.3132 N   0  0  0  0  0  0  0  0  0  0  0  0
  -89.0085   29.2553   -1.5013 C   0  0  0  0  0  0  0  0  0  0  0  0
  -89.4352   26.1551   -0.6325 H   0  0  0  0  0  0  0  0  0  0  0  0
  -90.6523   26.7003   -1.6990 H   0  0  0  0  0  0  0  0  0  0  0  0
  -90.0404   30.1664   -1.9404 N   0  0  0  0  0  0  0  0  0  0  0  0
  -90.1389   30.6301   -3.2695 C   0  0  0  0  0  0  0  0  0  0  0  0
  -91.1935   31.5643   -3.7282 C   0  0  0  0  0  0  0  0  0  0  0  0
  -89.2936   30.2345   -4.1087 O   0  0  0  0  0  0  0  0  0  0  0  0
  -90.7368   30.4893   -1.2379 H   0  0  0  0  0  0  0  0  0  0  0  0
  -87.0233   26.6259    0.9508 C   0  0  0  0  0  0  0  0  0  0  0  0
  -86.2526   26.6217    1.9515 O   0  0  0  0  0  0  0  0  0  0  0  0
  -87.3003   25.4058    0.3287 O   0  0  0  0  0  0  0  0  0  0  0  0
  -87.4044   24.6003    0.9530 H   0  0  0  0  0  0  0  0  0  0  0  0
  -87.0799   30.6999   -1.5720 O   0  0  0  0  0  0  0  0  0  0  0  0
  -86.8742   32.0277   -1.1835 C   0  0  0  0  0  0  0  0  0  0  0  0
  -88.0902   32.8050   -0.8696 C   0  0  0  0  0  0  0  0  0  0  0  0
  -88.5240   33.6503   -2.0687 C   0  0  0  0  0  0  0  0  0  0  0  0
  -85.7980   32.1847   -0.2015 C   0  0  0  0  0  0  0  0  0  0  0  0
  -84.5365   32.8867   -0.4400 C   0  0  0  0  0  0  0  0  0  0  0  0
  -83.3033   32.2333    0.0171 C   0  0  0  0  0  0  0  0  0  0  0  0
  -83.5560   30.6912    0.1574 C   0  0  0  0  0  0  0  0  0  0  0  0
  -83.0831   30.3608    1.5588 C   0  0  0  0  0  0  0  0  0  0  0  0
  -85.0696   29.8231    2.8575 C   0  0  0  0  0  0  0  0  0  0  0  0
  -83.8706   29.2422    2.1731 C   0  0  0  0  0  0  0  0  0  0  0  0
 28 29  1  0  0  0
 29 27  1  0  0  0
 27 26  1  0  0  0
 26 25  1  0  0  0
 25 24  1  0  0  0
 24 23  1  0  0  0
 23 20  1  0  0  0
 20 21  1  0  0  0
 21 22  1  0  0  0
 20 19  1  0  0  0
 19  1  1  0  0  0
  1  2  1  0  0  0
  2  3  2  0  0  0
  3 15  1  0  0  0
 15 16  2  0  0  0
 15 17  1  0  0  0
  3  4  1  0  0  0
  4  5  1  0  0  0
  5  6  1  0  0  0
  5  7  1  0  0  0
  7 10  1  0  0  0
 10 11  1  0  0  0
 11 12  1  0  0  0
 11 13  2  0  0  0
  7  1  1  0  0  0
 17 18  1  0  0  0
  6  8  1  0  0  0
  6  9  1  0  0  0
 10 14  1  0  0  0
M  END
> <minimizedAffinity>
-6.98276

> <CNNscore>
0.2568828464

> <CNNaffinity>
5.7331275940

> <CNN_VS>
1.4727420807

> <CNNaffinity_variance>
0.3659226298

$$$$
[H]OC(=O)C1=C([H])[C@@]([H])(O[C@@]([H])(C([H])([H])C([H])([H])[H])C([H])([H])C([H])([H])C([H])([H])C([H])([H])C([H])([H])C([H])([H])C([H])([H])[H])[C@]([H])(N([H])C(=O)C([H])([H])[H])[C@@]([H])(N([H])[H])C1([H])[H]


 29 29  0  0  0  0  0  0  0  0999 V2000
  -86.5703   30.3622   -0.1334 C   0  0  0  0  0  0  0  0  0  0  0  0
  -88.0056   30.4399   -0.6170 C   0  0  0  0  0  0  0  0  0  0  0  0
  -88.4051   29.5382   -1.5144 C   0  0  0  0  0  0  0  0  0  0  0  0
  -87.3220   28.5522   -1.8888 C   0  0  0  0  0  0  0  0  0  0  0  0
  -86.9302   27.9092   -0.5834 C   0  0  0  0  0  0  0  0  0  0  0  0
  -88.0438   27.1178   -0.0693 N   0  0  0  0  0  0  0  0  0  0  0  0
  -86.4898   28.9517    0.4071 C   0  0  0  0  0  0  0  0  0  0  0  0
  -88.7840   26.9915   -0.7942 H   0  0  0  0  0  0  0  0  0  0  0  0
  -87.6783   26.1561    0.2036 H   0  0  0  0  0  0  0  0  0  0  0  0
  -85.1687   28.5537    0.8357 N   0  0  0  0  0  0  0  0  0  0  0  0
  -84.8715   28.1896    2.1662 C   0  0  0  0  0  0  0  0  0  0  0  0
  -83.5199   27.7805    2.6143 C   0  0  0  0  0  0  0  0  0  0  0  0
  -85.7947   28.2118    3.0163 O   0  0  0  0  0  0  0  0  0  0  0  0
  -84.4094   28.5383    0.1243 H   0  0  0  0  0  0  0  0  0  0  0  0
  -89.7095   29.4401   -2.0955 C   0  0  0  0  0  0  0  0  0  0  0  0
  -89.9177   29.0215   -3.2689 O   0  0  0  0  0  0  0  0  0  0  0  0
  -90.8125   29.8259   -1.3294 O   0  0  0  0  0  0  0  0  0  0  0  0
  -91.6561   29.2560   -1.4433 H   0  0  0  0  0  0  0  0  0  0  0  0
  -86.3863   31.3288    0.7949 O   0  0  0  0  0  0  0  0  0  0  0  0
  -85.1953   32.0610    0.7530 C   0  0  0  0  0  0  0  0  0  0  0  0
  -84.1372   31.6278    1.6880 C   0  0  0  0  0  0  0  0  0  0  0  0
  -84.6620   31.5800    3.1242 C   0  0  0  0  0  0  0  0  0  0  0  0
  -84.7181   32.3149   -0.6089 C   0  0  0  0  0  0  0  0  0  0  0  0
  -85.0794   33.4744   -1.4251 C   0  0  0  0  0  0  0  0  0  0  0  0
  -86.0445   33.2612   -2.5113 C   0  0  0  0  0  0  0  0  0  0  0  0
  -87.4695   33.7114   -2.0335 C   0  0  0  0  0  0  0  0  0  0  0  0
  -88.4191   33.0404   -3.0054 C   0  0  0  0  0  0  0  0  0  0  0  0
  -88.6840   31.7250   -5.0355 C   0  0  0  0  0  0  0  0  0  0  0  0
  -87.6955   32.2017   -4.0162 C   0  0  0  0  0  0  0  0  0  0  0  0
 28 29  1  0  0  0
 29 27  1  0  0  0
 27 26  1  0  0  0
 26 25  1  0  0  0
 25 24  1  0  0  0
 24 23  1  0  0  0
 23 20  1  0  0  0
 20 21  1  0  0  0
 21 22  1  0  0  0
 20 19  1  0  0  0
 19  1  1  0  0  0
  1  2  1  0  0  0
  2  3  2  0  0  0
  3 15  1  0  0  0
 15 16  2  0  0  0
 15 17  1  0  0  0
  3  4  1  0  0  0
  4  5  1  0  0  0
  5  6  1  0  0  0
  5  7  1  0  0  0
  7 10  1  0  0  0
 10 11  1  0  0  0
 11 12  1  0  0  0
 11 13  2  0  0  0
  7  1  1  0  0  0
 17 18  1  0  0  0
  6  8  1  0  0  0
  6  9  1  0  0  0
 10 14  1  0  0  0
M  END
> <minimizedAffinity>
-5.93543

> <CNNscore>
0.2555314898

> <CNNaffinity>
5.6320581436

> <CNN_VS>
1.4391682148

> <CNNaffinity_variance>
0.3956027627

$$$$
[H]OC(=O)C1=C([H])[C@@]([H])(O[C@@]([H])(C([H])([H])C([H])([H])[H])C([H])([H])C([H])([H])C([H])([H])C([H])([H])C([H])([H])C([H])([H])C([H])([H])[H])[C@]([H])(N([H])C(=O)C([H])([H])[H])[C@@]([H])(N([H])[H])C1([H])[H]


 29 29  0  0  0  0  0  0  0  0999 V2000
  -89.2555   25.1393    0.3115 C   0  0  0  0  0  0  0  0  0  0  0  0
  -89.8904   26.0469   -0.7245 C   0  0  0  0  0  0  0  0  0  0  0  0
  -90.2458   25.5022   -1.8886 C   0  0  0  0  0  0  0  0  0  0  0  0
  -89.9592   24.0197   -1.9631 C   0  0  0  0  0  0  0  0  0  0  0  0
  -90.7278   23.4289   -0.8093 C   0  0  0  0  0  0  0  0  0  0  0  0
  -92.1609   23.5807   -1.0417 N   0  0  0  0  0  0  0  0  0  0  0  0
  -90.3077   24.0667    0.4862 C   0  0  0  0  0  0  0  0  0  0  0  0
  -92.3559   23.8662   -2.0265 H   0  0  0  0  0  0  0  0  0  0  0  0
  -92.6334   22.6429   -0.8678 H   0  0  0  0  0  0  0  0  0  0  0  0
  -89.9098   22.9785    1.3494 N   0  0  0  0  0  0  0  0  0  0  0  0
  -90.6375   22.6071    2.4999 C   0  0  0  0  0  0  0  0  0  0  0  0
  -90.2366   21.4929    3.3905 C   0  0  0  0  0  0  0  0  0  0  0  0
  -91.6768   23.2494    2.7875 O   0  0  0  0  0  0  0  0  0  0  0  0
  -89.0468   22.4517    1.1034 H   0  0  0  0  0  0  0  0  0  0  0  0
  -90.8543   26.1811   -2.9921 C   0  0  0  0  0  0  0  0  0  0  0  0
  -90.3956   27.2472   -3.4905 O   0  0  0  0  0  0  0  0  0  0  0  0
  -92.0156   25.6405   -3.5503 O   0  0  0  0  0  0  0  0  0  0  0  0
  -92.0965   25.7129   -4.5688 H   0  0  0  0  0  0  0  0  0  0  0  0
  -89.0141   25.8730    1.4220 O   0  0  0  0  0  0  0  0  0  0  0  0
  -89.1143   27.2646    1.3242 C   0  0  0  0  0  0  0  0  0  0  0  0
  -90.1204   27.9030    2.1969 C   0  0  0  0  0  0  0  0  0  0  0  0
  -91.0503   28.8092    1.3879 C   0  0  0  0  0  0  0  0  0  0  0  0
  -87.8145   27.9410    1.3214 C   0  0  0  0  0  0  0  0  0  0  0  0
  -87.3889   28.9430    0.3437 C   0  0  0  0  0  0  0  0  0  0  0  0
  -86.1140   29.6286    0.5909 C   0  0  0  0  0  0  0  0  0  0  0  0
  -85.6096   29.2789    2.0349 C   0  0  0  0  0  0  0  0  0  0  0  0
  -84.7656   30.4722    2.4353 C   0  0  0  0  0  0  0  0  0  0  0  0
  -82.7253   29.2319    1.9656 C   0  0  0  0  0  0  0  0  0  0  0  0
  -83.4575   30.5119    1.7031 C   0  0  0  0  0  0  0  0  0  0  0  0
 28 29  1  0  0  0
 29 27  1  0  0  0
 27 26  1  0  0  0
 26 25  1  0  0  0
 25 24  1  0  0  0
 24 23  1  0  0  0
 23 20  1  0  0  0
 20 21  1  0  0  0
 21 22  1  0  0  0
 20 19  1  0  0  0
 19  1  1  0  0  0
  1  2  1  0  0  0
  2  3  2  0  0  0
  3 15  1  0  0  0
 15 16  2  0  0  0
 15 17  1  0  0  0
  3  4  1  0  0  0
  4  5  1  0  0  0
  5  6  1  0  0  0
  5  7  1  0  0  0
  7 10  1  0  0  0
 10 11  1  0  0  0
 11 12  1  0  0  0
 11 13  2  0  0  0
  7  1  1  0  0  0
 17 18  1  0  0  0
  6  8  1  0  0  0
  6  9  1  0  0  0
 10 14  1  0  0  0
M  END
> <minimizedAffinity>
-6.53948

> <CNNscore>
0.2538428605

> <CNNaffinity>
5.5639333725

> <CNN_VS>
1.4123647213

> <CNNaffinity_variance>
0.2364675701

$$$$
[H]OC(=O)C1=C([H])[C@@]([H])(O[C@@]([H])(C([H])([H])C([H])([H])[H])C([H])([H])C([H])([H])C([H])([H])C([H])([H])C([H])([H])C([H])([H])C([H])([H])[H])[C@]([H])(N([H])C(=O)C([H])([H])[H])[C@@]([H])(N([H])[H])C1([H])[H]


 29 29  0  0  0  0  0  0  0  0999 V2000
  -86.9028   29.6329   -0.0912 C   0  0  0  0  0  0  0  0  0  0  0  0
  -87.3716   30.5748   -1.1835 C   0  0  0  0  0  0  0  0  0  0  0  0
  -87.7266   30.0386   -2.3516 C   0  0  0  0  0  0  0  0  0  0  0  0
  -87.6120   28.5313   -2.3729 C   0  0  0  0  0  0  0  0  0  0  0  0
  -88.5041   28.0698   -1.2495 C   0  0  0  0  0  0  0  0  0  0  0  0
  -89.8954   28.3788   -1.5654 N   0  0  0  0  0  0  0  0  0  0  0  0
  -88.0811   28.6951    0.0512 C   0  0  0  0  0  0  0  0  0  0  0  0
  -90.0035   28.6539   -2.5663 H   0  0  0  0  0  0  0  0  0  0  0  0
  -90.4829   27.5078   -1.3947 H   0  0  0  0  0  0  0  0  0  0  0  0
  -87.8593   27.5958    0.9623 N   0  0  0  0  0  0  0  0  0  0  0  0
  -88.7792   27.2385    1.9709 C   0  0  0  0  0  0  0  0  0  0  0  0
  -88.5598   26.1131    2.9093 C   0  0  0  0  0  0  0  0  0  0  0  0
  -89.8375   27.9039    2.0828 O   0  0  0  0  0  0  0  0  0  0  0  0
  -86.9792   27.0498    0.8623 H   0  0  0  0  0  0  0  0  0  0  0  0
  -88.1925   30.7483   -3.5041 C   0  0  0  0  0  0  0  0  0  0  0  0
  -89.0681   31.6572   -3.4534 O   0  0  0  0  0  0  0  0  0  0  0  0
  -87.6539   30.4225   -4.7515 O   0  0  0  0  0  0  0  0  0  0  0  0
  -87.5005   31.2086   -5.3902 H   0  0  0  0  0  0  0  0  0  0  0  0
  -86.6359   30.3682    1.0124 O   0  0  0  0  0  0  0  0  0  0  0  0
  -85.3826   30.2173    1.6146 C   0  0  0  0  0  0  0  0  0  0  0  0
  -85.3207   29.2751    2.7504 C   0  0  0  0  0  0  0  0  0  0  0  0
  -84.5567   28.0062    2.3676 C   0  0  0  0  0  0  0  0  0  0  0  0
  -84.2910   30.0586    0.6501 C   0  0  0  0  0  0  0  0  0  0  0  0
  -83.0136   30.7706    0.6997 C   0  0  0  0  0  0  0  0  0  0  0  0
  -82.7647   31.7835   -0.3341 C   0  0  0  0  0  0  0  0  0  0  0  0
  -83.6053   33.0687   -0.0127 C   0  0  0  0  0  0  0  0  0  0  0  0
  -84.5256   33.2219   -1.2069 C   0  0  0  0  0  0  0  0  0  0  0  0
  -86.6878   33.9494   -2.0539 C   0  0  0  0  0  0  0  0  0  0  0  0
  -85.8948   33.6876   -0.8105 C   0  0  0  0  0  0  0  0  0  0  0  0
 28 29  1  0  0  0
 29 27  1  0  0  0
 27 26  1  0  0  0
 26 25  1  0  0  0
 25 24  1  0  0  0
 24 23  1  0  0  0
 23 20  1  0  0  0
 20 21  1  0  0  0
 21 22  1  0  0  0
 20 19  1  0  0  0
 19  1  1  0  0  0
  1  2  1  0  0  0
  2  3  2  0  0  0
  3 15  1  0  0  0
 15 16  2  0  0  0
 15 17  1  0  0  0
  3  4  1  0  0  0
  4  5  1  0  0  0
  5  6  1  0  0  0
  5  7  1  0  0  0
  7 10  1  0  0  0
 10 11  1  0  0  0
 11 12  1  0  0  0
 11 13  2  0  0  0
  7  1  1  0  0  0
 17 18  1  0  0  0
  6  8  1  0  0  0
  6  9  1  0  0  0
 10 14  1  0  0  0
M  END
> <minimizedAffinity>
-7.02094

> <CNNscore>
0.2451465428

> <CNNaffinity>
5.5444874763

> <CNN_VS>
1.3592119217

> <CNNaffinity_variance>
0.4952162802

$$$$
[H]OC(=O)C1=C([H])[C@@]([H])(O[C@@]([H])(C([H])([H])C([H])([H])[H])C([H])([H])C([H])([H])C([H])([H])C([H])([H])C([H])([H])C([H])([H])C([H])([H])[H])[C@]([H])(N([H])C(=O)C([H])([H])[H])[C@@]([H])(N([H])[H])C1([H])[H]


 29 29  0  0  0  0  0  0  0  0999 V2000
  -88.1780   28.0540    2.1022 C   0  0  0  0  0  0  0  0  0  0  0  0
  -88.5826   27.2357    3.3133 C   0  0  0  0  0  0  0  0  0  0  0  0
  -89.8717   27.2315    3.6537 C   0  0  0  0  0  0  0  0  0  0  0  0
  -90.7338   28.0580    2.7268 C   0  0  0  0  0  0  0  0  0  0  0  0
  -90.5111   27.4522    1.3650 C   0  0  0  0  0  0  0  0  0  0  0  0
  -91.0562   26.0984    1.3320 N   0  0  0  0  0  0  0  0  0  0  0  0
  -89.0491   27.4677    1.0133 C   0  0  0  0  0  0  0  0  0  0  0  0
  -91.6581   25.9130    2.1642 H   0  0  0  0  0  0  0  0  0  0  0  0
  -91.6559   25.9960    0.4586 H   0  0  0  0  0  0  0  0  0  0  0  0
  -88.9570   28.1529   -0.2553 N   0  0  0  0  0  0  0  0  0  0  0  0
  -88.1560   27.6895   -1.3207 C   0  0  0  0  0  0  0  0  0  0  0  0
  -88.0557   28.3858   -2.6246 C   0  0  0  0  0  0  0  0  0  0  0  0
  -87.4937   26.6353   -1.1608 O   0  0  0  0  0  0  0  0  0  0  0  0
  -89.5093   29.0261   -0.3790 H   0  0  0  0  0  0  0  0  0  0  0  0
  -90.4556   26.5300    4.7564 C   0  0  0  0  0  0  0  0  0  0  0  0
  -91.3585   25.6566    4.6246 O   0  0  0  0  0  0  0  0  0  0  0  0
  -90.0070   26.8228    6.0469 O   0  0  0  0  0  0  0  0  0  0  0  0
  -89.9357   26.0255    6.6860 H   0  0  0  0  0  0  0  0  0  0  0  0
  -86.8498   27.8880    1.9069 O   0  0  0  0  0  0  0  0  0  0  0  0
  -86.0411   29.0290    1.8897 C   0  0  0  0  0  0  0  0  0  0  0  0
  -84.9652   29.0738    2.9006 C   0  0  0  0  0  0  0  0  0  0  0  0
  -83.7753   28.2130    2.4717 C   0  0  0  0  0  0  0  0  0  0  0  0
  -85.6085   29.4131    0.5434 C   0  0  0  0  0  0  0  0  0  0  0  0
  -86.0205   30.6292   -0.1583 C   0  0  0  0  0  0  0  0  0  0  0  0
  -85.6131   31.9149    0.4228 C   0  0  0  0  0  0  0  0  0  0  0  0
  -85.0270   32.8315   -0.7077 C   0  0  0  0  0  0  0  0  0  0  0  0
  -83.5429   32.8927   -0.4076 C   0  0  0  0  0  0  0  0  0  0  0  0
  -82.2679   31.0800    0.5975 C   0  0  0  0  0  0  0  0  0  0  0  0
  -83.1985   32.2175    0.8863 C   0  0  0  0  0  0  0  0  0  0  0  0
 28 29  1  0  0  0
 29 27  1  0  0  0
 27 26  1  0  0  0
 26 25  1  0  0  0
 25 24  1  0  0  0
 24 23  1  0  0  0
 23 20  1  0  0  0
 20 21  1  0  0  0
 21 22  1  0  0  0
 20 19  1  0  0  0
 19  1  1  0  0  0
  1  2  1  0  0  0
  2  3  2  0  0  0
  3 15  1  0  0  0
 15 16  2  0  0  0
 15 17  1  0  0  0
  3  4  1  0  0  0
  4  5  1  0  0  0
  5  6  1  0  0  0
  5  7  1  0  0  0
  7 10  1  0  0  0
 10 11  1  0  0  0
 11 12  1  0  0  0
 11 13  2  0  0  0
  7  1  1  0  0  0
 17 18  1  0  0  0
  6  8  1  0  0  0
  6  9  1  0  0  0
 10 14  1  0  0  0
M  END
> <minimizedAffinity>
-7.32007

> <CNNscore>
0.2358510941

> <CNNaffinity>
5.4426755905

> <CNN_VS>
1.2836610079

> <CNNaffinity_variance>
0.5274367332

$$$$
[H]c1c([H])c(-c2c([H])c([H])c(C([H])(C(=O)N([H])C([H])([H])C([H])([H])C([H])([H])C([H])([H])C([H])([H])C([H])([H])N([H])c3c4c(nc5c([H])c([H])c([H])c([H])c35)C([H])([H])C([H])([H])C([H])([H])C4([H])[H])C([H])([H])[H])c([H])c2F)c([H])c([H])c1OC([H])([H])C([H])([H])C([H])([H])C([H])([H])C([H])([H])C([H])([H])O[N+](=O)[O-]


 52 56  0  0  0  0  0  0  0  0999 V2000
  -90.3992   25.7398    4.8539 C   0  0  0  0  0  0  0  0  0  0  0  0
  -89.7881   25.1188    3.6014 C   0  0  0  0  0  0  0  0  0  0  0  0
  -89.5922   26.2082    2.6253 C   0  0  0  0  0  0  0  0  0  0  0  0
  -88.3252   26.6947    2.4051 C   0  0  0  0  0  0  0  0  0  0  0  0
  -88.0878   27.7355    1.5060 C   0  0  0  0  0  0  0  0  0  0  0  0
  -89.1352   28.2808    0.8319 C   0  0  0  0  0  0  0  0  0  0  0  0
  -90.4089   27.8096    1.0370 C   0  0  0  0  0  0  0  0  0  0  0  0
  -91.4639   28.3457    0.3785 F   0  0  0  0  0  0  0  0  0  0  0  0
  -90.6385   26.7642    1.9418 C   0  0  0  0  0  0  0  0  0  0  0  0
  -88.9174   29.3601   -0.1133 C   0  0  0  0  0  0  0  0  0  0  0  0
  -89.6303   30.5365   -0.0545 C   0  0  0  0  0  0  0  0  0  0  0  0
  -89.3958   31.5635   -0.9744 C   0  0  0  0  0  0  0  0  0  0  0  0
  -88.4588   31.4633   -1.9741 C   0  0  0  0  0  0  0  0  0  0  0  0
  -87.7370   30.2531   -2.0202 C   0  0  0  0  0  0  0  0  0  0  0  0
  -87.9778   29.2597   -1.1140 C   0  0  0  0  0  0  0  0  0  0  0  0
  -88.1717   32.4180   -2.9162 O   0  0  0  0  0  0  0  0  0  0  0  0
  -87.5580   33.6502   -2.7082 C   0  0  0  0  0  0  0  0  0  0  0  0
  -86.1588   33.4602   -2.2165 C   0  0  0  0  0  0  0  0  0  0  0  0
  -86.1115   33.5326   -0.7187 C   0  0  0  0  0  0  0  0  0  0  0  0
  -85.0329   32.6552   -0.1831 C   0  0  0  0  0  0  0  0  0  0  0  0
  -85.5559   31.4396    0.5385 C   0  0  0  0  0  0  0  0  0  0  0  0
  -84.4059   30.5895    0.9951 C   0  0  0  0  0  0  0  0  0  0  0  0
  -84.8741   29.2356    1.1264 O   0  0  0  0  0  0  0  0  0  0  0  0
  -84.8258   28.6996    2.3905 N   0  0  0  0  0  0  0  0  0  0  0  0
  -85.1146   29.3583    3.4068 O   0  0  0  0  0  0  0  0  0  0  0  0
  -84.4350   27.3761    2.4738 O   0  0  0  0  0  0  0  0  0  0  0  0
  -90.5415   23.9639    3.1173 C   0  0  0  0  0  0  0  0  0  0  0  0
  -91.5924   23.5742    3.7387 O   0  0  0  0  0  0  0  0  0  0  0  0
  -90.2027   23.2042    1.9743 N   0  0  0  0  0  0  0  0  0  0  0  0
  -89.3569   23.4837    1.4365 H   0  0  0  0  0  0  0  0  0  0  0  0
  -90.9570   22.0726    1.5082 C   0  0  0  0  0  0  0  0  0  0  0  0
  -92.2298   22.4776    0.8044 C   0  0  0  0  0  0  0  0  0  0  0  0
  -92.6586   21.3829   -0.1523 C   0  0  0  0  0  0  0  0  0  0  0  0
  -93.8157   21.9482   -0.9781 C   0  0  0  0  0  0  0  0  0  0  0  0
  -93.7901   21.4314   -2.3657 C   0  0  0  0  0  0  0  0  0  0  0  0
  -93.6647   22.4405   -3.4266 C   0  0  0  0  0  0  0  0  0  0  0  0
  -93.7604   23.7967   -3.0896 N   0  0  0  0  0  0  0  0  0  0  0  0
  -94.5187   24.0397   -2.3473 H   0  0  0  0  0  0  0  0  0  0  0  0
  -93.0652   24.9271   -3.5234 C   0  0  0  0  0  0  0  0  0  0  0  0
  -91.9416   25.3425   -2.8368 C   0  0  0  0  0  0  0  0  0  0  0  0
  -91.2309   26.4279   -3.2930 C   0  0  0  0  0  0  0  0  0  0  0  0
  -91.6484   27.0751   -4.4183 N   0  0  0  0  0  0  0  0  0  0  0  0
  -92.7330   26.7032   -5.1142 C   0  0  0  0  0  0  0  0  0  0  0  0
  -93.1313   27.3700   -6.2480 C   0  0  0  0  0  0  0  0  0  0  0  0
  -94.2362   26.9772   -6.9489 C   0  0  0  0  0  0  0  0  0  0  0  0
  -94.9484   25.8887   -6.4902 C   0  0  0  0  0  0  0  0  0  0  0  0
  -94.5730   25.2103   -5.3670 C   0  0  0  0  0  0  0  0  0  0  0  0
  -93.4511   25.6160   -4.6626 C   0  0  0  0  0  0  0  0  0  0  0  0
  -90.0440   26.8787   -2.5586 C   0  0  0  0  0  0  0  0  0  0  0  0
  -89.2998   25.8227   -1.8184 C   0  0  0  0  0  0  0  0  0  0  0  0
  -89.9493   24.4670   -1.8254 C   0  0  0  0  0  0  0  0  0  0  0  0
  -91.4553   24.6492   -1.6192 C   0  0  0  0  0  0  0  0  0  0  0  0
  1  2  1  0  0  0
  2 27  1  0  0  0
 27 28  2  0  0  0
 27 29  1  0  0  0
 29 31  1  0  0  0
 31 32  1  0  0  0
 32 33  1  0  0  0
 33 34  1  0  0  0
 34 35  1  0  0  0
 35 36  1  0  0  0
 36 37  1  0  0  0
 37 39  1  0  0  0
 39 40  2  0  0  0
 40 41  1  0  0  0
 41 42  2  0  0  0
 42 43  1  0  0  0
 43 44  2  0  0  0
 44 45  1  0  0  0
 45 46  2  0  0  0
 46 47  1  0  0  0
 47 48  2  0  0  0
 41 49  1  0  0  0
 49 50  1  0  0  0
 50 51  1  0  0  0
 51 52  1  0  0  0
  2  3  1  0  0  0
  3  4  2  0  0  0
  4  5  1  0  0  0
  5  6  2  0  0  0
  6 10  1  0  0  0
 10 11  2  0  0  0
 11 12  1  0  0  0
 12 13  2  0  0  0
 13 16  1  0  0  0
 16 17  1  0  0  0
 17 18  1  0  0  0
 18 19  1  0  0  0
 19 20  1  0  0  0
 20 21  1  0  0  0
 21 22  1  0  0  0
 22 23  1  0  0  0
 23 24  1  0  0  0
 24 25  2  0  0  0
 24 26  1  0  0  0
 13 14  1  0  0  0
 14 15  2  0  0  0
  6  7  1  0  0  0
  7  8  1  0  0  0
  7  9  2  0  0  0
 48 39  1  0  0  0
  9  3  1  0  0  0
 52 40  1  0  0  0
 15 10  1  0  0  0
 48 43  1  0  0  0
 29 30  1  0  0  0
 37 38  1  0  0  0
M  CHG 1  24   1
M  CHG 1  26  -1
M  END
> <minimizedAffinity>
-8.21864

> <CNNscore>
0.2547535002

> <CNNaffinity>
7.5256843567

> <CNN_VS>
1.9171944857

> <CNNaffinity_variance>
1.3268344402

$$$$
[H]c1c([H])c(-c2c([H])c([H])c(C([H])(C(=O)N([H])C([H])([H])C([H])([H])C([H])([H])C([H])([H])C([H])([H])C([H])([H])N([H])c3c4c(nc5c([H])c([H])c([H])c([H])c35)C([H])([H])C([H])([H])C([H])([H])C4([H])[H])C([H])([H])[H])c([H])c2F)c([H])c([H])c1OC([H])([H])C([H])([H])C([H])([H])C([H])([H])C([H])([H])C([H])([H])O[N+](=O)[O-]


 52 56  0  0  0  0  0  0  0  0999 V2000
  -85.1260   31.0558    3.5659 C   0  0  0  0  0  0  0  0  0  0  0  0
  -84.6280   30.3205    2.3254 C   0  0  0  0  0  0  0  0  0  0  0  0
  -85.1763   31.0257    1.1507 C   0  0  0  0  0  0  0  0  0  0  0  0
  -86.4483   30.7293    0.7209 C   0  0  0  0  0  0  0  0  0  0  0  0
  -87.0073   31.3544   -0.3947 C   0  0  0  0  0  0  0  0  0  0  0  0
  -86.2759   32.2788   -1.0723 C   0  0  0  0  0  0  0  0  0  0  0  0
  -85.0032   32.5897   -0.6599 C   0  0  0  0  0  0  0  0  0  0  0  0
  -84.2589   33.5035   -1.3271 F   0  0  0  0  0  0  0  0  0  0  0  0
  -84.4494   31.9571    0.4614 C   0  0  0  0  0  0  0  0  0  0  0  0
  -86.8336   32.9489   -2.2323 C   0  0  0  0  0  0  0  0  0  0  0  0
  -86.8528   34.3211   -2.3432 C   0  0  0  0  0  0  0  0  0  0  0  0
  -87.3908   34.9413   -3.4754 C   0  0  0  0  0  0  0  0  0  0  0  0
  -87.9235   34.2334   -4.5255 C   0  0  0  0  0  0  0  0  0  0  0  0
  -87.8955   32.8297   -4.3969 C   0  0  0  0  0  0  0  0  0  0  0  0
  -87.3661   32.2393   -3.2846 C   0  0  0  0  0  0  0  0  0  0  0  0
  -88.4734   34.7626   -5.6652 O   0  0  0  0  0  0  0  0  0  0  0  0
  -89.1432   35.9763   -5.7933 C   0  0  0  0  0  0  0  0  0  0  0  0
  -88.8795   36.5791   -7.1360 C   0  0  0  0  0  0  0  0  0  0  0  0
  -87.4272   36.9259   -7.2827 C   0  0  0  0  0  0  0  0  0  0  0  0
  -86.9661   37.7576   -6.1356 C   0  0  0  0  0  0  0  0  0  0  0  0
  -85.6702   38.4790   -6.4047 C   0  0  0  0  0  0  0  0  0  0  0  0
  -85.4458   39.5244   -5.3510 C   0  0  0  0  0  0  0  0  0  0  0  0
  -85.8347   38.9712   -4.0811 O   0  0  0  0  0  0  0  0  0  0  0  0
  -86.8089   39.6568   -3.3965 N   0  0  0  0  0  0  0  0  0  0  0  0
  -87.3617   39.1954   -2.3808 O   0  0  0  0  0  0  0  0  0  0  0  0
  -87.1455   40.8988   -3.9016 O   0  0  0  0  0  0  0  0  0  0  0  0
  -84.8869   28.8831    2.3776 C   0  0  0  0  0  0  0  0  0  0  0  0
  -84.0064   28.0874    2.8612 O   0  0  0  0  0  0  0  0  0  0  0  0
  -86.0735   28.2625    1.9246 N   0  0  0  0  0  0  0  0  0  0  0  0
  -86.8183   28.8689    1.5242 H   0  0  0  0  0  0  0  0  0  0  0  0
  -86.3150   26.8467    1.9869 C   0  0  0  0  0  0  0  0  0  0  0  0
  -87.0851   26.3394    0.7916 C   0  0  0  0  0  0  0  0  0  0  0  0
  -87.3746   27.4855   -0.1573 C   0  0  0  0  0  0  0  0  0  0  0  0
  -88.0946   26.8850   -1.3662 C   0  0  0  0  0  0  0  0  0  0  0  0
  -89.3102   27.6586   -1.7083 C   0  0  0  0  0  0  0  0  0  0  0  0
  -90.0336   28.2550   -0.5766 C   0  0  0  0  0  0  0  0  0  0  0  0
  -90.9579   27.4727    0.1276 N   0  0  0  0  0  0  0  0  0  0  0  0
  -91.9949   27.7949    0.0506 H   0  0  0  0  0  0  0  0  0  0  0  0
  -90.8159   26.3376    0.9280 C   0  0  0  0  0  0  0  0  0  0  0  0
  -90.3697   26.4706    2.2278 C   0  0  0  0  0  0  0  0  0  0  0  0
  -90.2757   25.3572    3.0296 C   0  0  0  0  0  0  0  0  0  0  0  0
  -90.6267   24.1395    2.5262 N   0  0  0  0  0  0  0  0  0  0  0  0
  -91.0653   23.9677    1.2704 C   0  0  0  0  0  0  0  0  0  0  0  0
  -91.4166   22.7300    0.7875 C   0  0  0  0  0  0  0  0  0  0  0  0
  -91.8656   22.5709   -0.4929 C   0  0  0  0  0  0  0  0  0  0  0  0
  -91.9593   23.6883   -1.2962 C   0  0  0  0  0  0  0  0  0  0  0  0
  -91.6163   24.9279   -0.8398 C   0  0  0  0  0  0  0  0  0  0  0  0
  -91.1618   25.0795    0.4602 C   0  0  0  0  0  0  0  0  0  0  0  0
  -89.7903   25.4939    4.4070 C   0  0  0  0  0  0  0  0  0  0  0  0
  -90.0641   26.8017    5.0640 C   0  0  0  0  0  0  0  0  0  0  0  0
  -90.6853   27.8407    4.1726 C   0  0  0  0  0  0  0  0  0  0  0  0
  -89.9956   27.7836    2.8070 C   0  0  0  0  0  0  0  0  0  0  0  0
  1  2  1  0  0  0
  2 27  1  0  0  0
 27 28  2  0  0  0
 27 29  1  0  0  0
 29 31  1  0  0  0
 31 32  1  0  0  0
 32 33  1  0  0  0
 33 34  1  0  0  0
 34 35  1  0  0  0
 35 36  1  0  0  0
 36 37  1  0  0  0
 37 39  1  0  0  0
 39 40  2  0  0  0
 40 41  1  0  0  0
 41 42  2  0  0  0
 42 43  1  0  0  0
 43 44  2  0  0  0
 44 45  1  0  0  0
 45 46  2  0  0  0
 46 47  1  0  0  0
 47 48  2  0  0  0
 41 49  1  0  0  0
 49 50  1  0  0  0
 50 51  1  0  0  0
 51 52  1  0  0  0
  2  3  1  0  0  0
  3  4  2  0  0  0
  4  5  1  0  0  0
  5  6  2  0  0  0
  6 10  1  0  0  0
 10 11  2  0  0  0
 11 12  1  0  0  0
 12 13  2  0  0  0
 13 16  1  0  0  0
 16 17  1  0  0  0
 17 18  1  0  0  0
 18 19  1  0  0  0
 19 20  1  0  0  0
 20 21  1  0  0  0
 21 22  1  0  0  0
 22 23  1  0  0  0
 23 24  1  0  0  0
 24 25  2  0  0  0
 24 26  1  0  0  0
 13 14  1  0  0  0
 14 15  2  0  0  0
  6  7  1  0  0  0
  7  8  1  0  0  0
  7  9  2  0  0  0
 48 39  1  0  0  0
  9  3  1  0  0  0
 52 40  1  0  0  0
 15 10  1  0  0  0
 48 43  1  0  0  0
 29 30  1  0  0  0
 37 38  1  0  0  0
M  CHG 1  24   1
M  CHG 1  26  -1
M  END
> <minimizedAffinity>
-8.45674

> <CNNscore>
0.2435858250

> <CNNaffinity>
7.6039209366

> <CNN_VS>
1.8522073030

> <CNNaffinity_variance>
0.5903882980

$$$$
[H]c1c([H])c(-c2c([H])c([H])c(C([H])(C(=O)N([H])C([H])([H])C([H])([H])C([H])([H])C([H])([H])C([H])([H])C([H])([H])N([H])c3c4c(nc5c([H])c([H])c([H])c([H])c35)C([H])([H])C([H])([H])C([H])([H])C4([H])[H])C([H])([H])[H])c([H])c2F)c([H])c([H])c1OC([H])([H])C([H])([H])C([H])([H])C([H])([H])C([H])([H])C([H])([H])O[N+](=O)[O-]


 52 56  0  0  0  0  0  0  0  0999 V2000
  -90.7180   26.1354    4.6723 C   0  0  0  0  0  0  0  0  0  0  0  0
  -89.9312   25.4868    3.5374 C   0  0  0  0  0  0  0  0  0  0  0  0
  -89.6370   26.5439    2.5506 C   0  0  0  0  0  0  0  0  0  0  0  0
  -90.6776   27.1838    1.9195 C   0  0  0  0  0  0  0  0  0  0  0  0
  -90.4537   28.1780    0.9658 C   0  0  0  0  0  0  0  0  0  0  0  0
  -89.1757   28.5215    0.6540 C   0  0  0  0  0  0  0  0  0  0  0  0
  -88.1217   27.8948    1.2726 C   0  0  0  0  0  0  0  0  0  0  0  0
  -86.8427   28.2205    0.9691 F   0  0  0  0  0  0  0  0  0  0  0  0
  -88.3554   26.8974    2.2291 C   0  0  0  0  0  0  0  0  0  0  0  0
  -88.9131   29.5557   -0.3296 C   0  0  0  0  0  0  0  0  0  0  0  0
  -88.0787   29.3455   -1.4044 C   0  0  0  0  0  0  0  0  0  0  0  0
  -87.8479   30.3578   -2.3414 C   0  0  0  0  0  0  0  0  0  0  0  0
  -88.4275   31.5999   -2.2483 C   0  0  0  0  0  0  0  0  0  0  0  0
  -89.2795   31.7988   -1.1428 C   0  0  0  0  0  0  0  0  0  0  0  0
  -89.4948   30.7996   -0.2365 C   0  0  0  0  0  0  0  0  0  0  0  0
  -88.2503   32.6455   -3.1183 O   0  0  0  0  0  0  0  0  0  0  0  0
  -87.2467   33.6098   -3.0846 C   0  0  0  0  0  0  0  0  0  0  0  0
  -86.7586   33.8066   -1.6851 C   0  0  0  0  0  0  0  0  0  0  0  0
  -85.4094   33.1761   -1.5031 C   0  0  0  0  0  0  0  0  0  0  0  0
  -85.1535   32.8863   -0.0642 C   0  0  0  0  0  0  0  0  0  0  0  0
  -85.6273   31.5206    0.3628 C   0  0  0  0  0  0  0  0  0  0  0  0
  -84.4669   30.5687    0.3891 C   0  0  0  0  0  0  0  0  0  0  0  0
  -83.9251   30.5595    1.7218 O   0  0  0  0  0  0  0  0  0  0  0  0
  -84.2254   29.4595    2.4884 N   0  0  0  0  0  0  0  0  0  0  0  0
  -83.5790   28.3979    2.4154 O   0  0  0  0  0  0  0  0  0  0  0  0
  -85.2948   29.5966    3.3536 O   0  0  0  0  0  0  0  0  0  0  0  0
  -90.5839   24.2913    3.0077 C   0  0  0  0  0  0  0  0  0  0  0  0
  -91.6473   23.8392    3.5618 O   0  0  0  0  0  0  0  0  0  0  0  0
  -90.1300   23.5559    1.8890 N   0  0  0  0  0  0  0  0  0  0  0  0
  -89.2697   23.8858    1.4053 H   0  0  0  0  0  0  0  0  0  0  0  0
  -90.7860   22.3836    1.3772 C   0  0  0  0  0  0  0  0  0  0  0  0
  -91.2419   22.5548   -0.0519 C   0  0  0  0  0  0  0  0  0  0  0  0
  -91.2134   24.0229   -0.4279 C   0  0  0  0  0  0  0  0  0  0  0  0
  -90.1885   24.1691   -1.5543 C   0  0  0  0  0  0  0  0  0  0  0  0
  -89.4935   25.4748   -1.4841 C   0  0  0  0  0  0  0  0  0  0  0  0
  -89.8375   26.4448   -2.5332 C   0  0  0  0  0  0  0  0  0  0  0  0
  -90.9874   26.2328   -3.3044 N   0  0  0  0  0  0  0  0  0  0  0  0
  -90.8326   25.6796   -4.2291 H   0  0  0  0  0  0  0  0  0  0  0  0
  -92.3233   26.5964   -3.1245 C   0  0  0  0  0  0  0  0  0  0  0  0
  -92.6365   27.8970   -2.7829 C   0  0  0  0  0  0  0  0  0  0  0  0
  -93.9552   28.2650   -2.6525 C   0  0  0  0  0  0  0  0  0  0  0  0
  -94.9321   27.3375   -2.8645 N   0  0  0  0  0  0  0  0  0  0  0  0
  -94.6703   26.0651   -3.1984 C   0  0  0  0  0  0  0  0  0  0  0  0
  -95.6731   25.1496   -3.4104 C   0  0  0  0  0  0  0  0  0  0  0  0
  -95.3913   23.8577   -3.7538 C   0  0  0  0  0  0  0  0  0  0  0  0
  -94.0683   23.4898   -3.8841 C   0  0  0  0  0  0  0  0  0  0  0  0
  -93.0548   24.3804   -3.6786 C   0  0  0  0  0  0  0  0  0  0  0  0
  -93.3503   25.6885   -3.3304 C   0  0  0  0  0  0  0  0  0  0  0  0
  -94.2904   29.6429   -2.2778 C   0  0  0  0  0  0  0  0  0  0  0  0
  -93.3173   30.6858   -2.7052 C   0  0  0  0  0  0  0  0  0  0  0  0
  -92.0646   30.1583   -3.3471 C   0  0  0  0  0  0  0  0  0  0  0  0
  -91.5964   28.9307   -2.5612 C   0  0  0  0  0  0  0  0  0  0  0  0
  1  2  1  0  0  0
  2 27  1  0  0  0
 27 28  2  0  0  0
 27 29  1  0  0  0
 29 31  1  0  0  0
 31 32  1  0  0  0
 32 33  1  0  0  0
 33 34  1  0  0  0
 34 35  1  0  0  0
 35 36  1  0  0  0
 36 37  1  0  0  0
 37 39  1  0  0  0
 39 40  2  0  0  0
 40 41  1  0  0  0
 41 42  2  0  0  0
 42 43  1  0  0  0
 43 44  2  0  0  0
 44 45  1  0  0  0
 45 46  2  0  0  0
 46 47  1  0  0  0
 47 48  2  0  0  0
 41 49  1  0  0  0
 49 50  1  0  0  0
 50 51  1  0  0  0
 51 52  1  0  0  0
  2  3  1  0  0  0
  3  4  2  0  0  0
  4  5  1  0  0  0
  5  6  2  0  0  0
  6 10  1  0  0  0
 10 11  2  0  0  0
 11 12  1  0  0  0
 12 13  2  0  0  0
 13 16  1  0  0  0
 16 17  1  0  0  0
 17 18  1  0  0  0
 18 19  1  0  0  0
 19 20  1  0  0  0
 20 21  1  0  0  0
 21 22  1  0  0  0
 22 23  1  0  0  0
 23 24  1  0  0  0
 24 25  2  0  0  0
 24 26  1  0  0  0
 13 14  1  0  0  0
 14 15  2  0  0  0
  6  7  1  0  0  0
  7  8  1  0  0  0
  7  9  2  0  0  0
 48 39  1  0  0  0
  9  3  1  0  0  0
 52 40  1  0  0  0
 15 10  1  0  0  0
 48 43  1  0  0  0
 29 30  1  0  0  0
 37 38  1  0  0  0
M  CHG 1  24   1
M  CHG 1  26  -1
M  END
> <minimizedAffinity>
-7.66598

> <CNNscore>
0.2185957283

> <CNNaffinity>
7.7394781113

> <CNN_VS>
1.6918168068

> <CNNaffinity_variance>
1.2635204792

$$$$
[H]c1c([H])c(-c2c([H])c([H])c(C([H])(C(=O)N([H])C([H])([H])C([H])([H])C([H])([H])C([H])([H])C([H])([H])C([H])([H])N([H])c3c4c(nc5c([H])c([H])c([H])c([H])c35)C([H])([H])C([H])([H])C([H])([H])C4([H])[H])C([H])([H])[H])c([H])c2F)c([H])c([H])c1OC([H])([H])C([H])([H])C([H])([H])C([H])([H])C([H])([H])C([H])([H])O[N+](=O)[O-]


 52 56  0  0  0  0  0  0  0  0999 V2000
  -93.1831   26.9683   -5.8771 C   0  0  0  0  0  0  0  0  0  0  0  0
  -93.7571   27.8418   -4.7656 C   0  0  0  0  0  0  0  0  0  0  0  0
  -92.6762   28.7392   -4.3139 C   0  0  0  0  0  0  0  0  0  0  0  0
  -91.8136   28.3126   -3.3318 C   0  0  0  0  0  0  0  0  0  0  0  0
  -90.7857   29.1285   -2.8566 C   0  0  0  0  0  0  0  0  0  0  0  0
  -90.6344   30.3751   -3.3779 C   0  0  0  0  0  0  0  0  0  0  0  0
  -91.4852   30.8210   -4.3596 C   0  0  0  0  0  0  0  0  0  0  0  0
  -91.3522   32.0620   -4.8851 F   0  0  0  0  0  0  0  0  0  0  0  0
  -92.5148   29.9952   -4.8311 C   0  0  0  0  0  0  0  0  0  0  0  0
  -89.5710   31.2431   -2.9071 C   0  0  0  0  0  0  0  0  0  0  0  0
  -88.4180   31.4437   -3.6323 C   0  0  0  0  0  0  0  0  0  0  0  0
  -87.4113   32.2908   -3.1581 C   0  0  0  0  0  0  0  0  0  0  0  0
  -87.5087   32.9610   -1.9627 C   0  0  0  0  0  0  0  0  0  0  0  0
  -88.6955   32.7455   -1.2328 C   0  0  0  0  0  0  0  0  0  0  0  0
  -89.6696   31.9151   -1.7100 C   0  0  0  0  0  0  0  0  0  0  0  0
  -86.5686   33.8028   -1.4252 O   0  0  0  0  0  0  0  0  0  0  0  0
  -85.5909   33.4853   -0.4863 C   0  0  0  0  0  0  0  0  0  0  0  0
  -84.2854   33.2146   -1.1630 C   0  0  0  0  0  0  0  0  0  0  0  0
  -83.2004   32.9986   -0.1495 C   0  0  0  0  0  0  0  0  0  0  0  0
  -83.0239   31.5459    0.1312 C   0  0  0  0  0  0  0  0  0  0  0  0
  -83.5394   31.1332    1.4861 C   0  0  0  0  0  0  0  0  0  0  0  0
  -83.2448   29.6795    1.7174 C   0  0  0  0  0  0  0  0  0  0  0  0
  -84.3663   29.0992    2.4066 O   0  0  0  0  0  0  0  0  0  0  0  0
  -84.4438   27.7276    2.3865 N   0  0  0  0  0  0  0  0  0  0  0  0
  -85.3646   27.1190    1.8105 O   0  0  0  0  0  0  0  0  0  0  0  0
  -83.4340   27.0532    3.0473 O   0  0  0  0  0  0  0  0  0  0  0  0
  -94.4130   27.0640   -3.7166 C   0  0  0  0  0  0  0  0  0  0  0  0
  -95.4354   27.5387   -3.1068 O   0  0  0  0  0  0  0  0  0  0  0  0
  -94.0057   25.7777   -3.2949 N   0  0  0  0  0  0  0  0  0  0  0  0
  -93.1798   25.3505   -3.7622 H   0  0  0  0  0  0  0  0  0  0  0  0
  -94.6645   25.0231   -2.2638 C   0  0  0  0  0  0  0  0  0  0  0  0
  -93.8262   24.8988   -1.0144 C   0  0  0  0  0  0  0  0  0  0  0  0
  -92.5873   25.7634   -1.1387 C   0  0  0  0  0  0  0  0  0  0  0  0
  -91.5067   24.8940   -1.7844 C   0  0  0  0  0  0  0  0  0  0  0  0
  -91.0742   23.8083   -0.8749 C   0  0  0  0  0  0  0  0  0  0  0  0
  -89.6229   23.6165   -0.7454 C   0  0  0  0  0  0  0  0  0  0  0  0
  -88.9224   24.3570    0.2154 N   0  0  0  0  0  0  0  0  0  0  0  0
  -88.0784   23.8446    0.6739 H   0  0  0  0  0  0  0  0  0  0  0  0
  -89.0914   25.6489    0.7171 C   0  0  0  0  0  0  0  0  0  0  0  0
  -89.8025   25.8398    1.8851 C   0  0  0  0  0  0  0  0  0  0  0  0
  -89.9276   27.1076    2.4033 C   0  0  0  0  0  0  0  0  0  0  0  0
  -89.3450   28.1555    1.7537 N   0  0  0  0  0  0  0  0  0  0  0  0
  -88.6458   28.0127    0.6181 C   0  0  0  0  0  0  0  0  0  0  0  0
  -88.0648   29.0847   -0.0159 C   0  0  0  0  0  0  0  0  0  0  0  0
  -87.3520   28.9233   -1.1701 C   0  0  0  0  0  0  0  0  0  0  0  0
  -87.2274   27.6513   -1.6889 C   0  0  0  0  0  0  0  0  0  0  0  0
  -87.7951   26.5711   -1.0780 C   0  0  0  0  0  0  0  0  0  0  0  0
  -88.5164   26.7445    0.0922 C   0  0  0  0  0  0  0  0  0  0  0  0
  -90.6927   27.3148    3.6373 C   0  0  0  0  0  0  0  0  0  0  0  0
  -90.7088   26.1705    4.5900 C   0  0  0  0  0  0  0  0  0  0  0  0
  -90.0442   24.9191    4.0880 C   0  0  0  0  0  0  0  0  0  0  0  0
  -90.4337   24.7176    2.6212 C   0  0  0  0  0  0  0  0  0  0  0  0
  1  2  1  0  0  0
  2 27  1  0  0  0
 27 28  2  0  0  0
 27 29  1  0  0  0
 29 31  1  0  0  0
 31 32  1  0  0  0
 32 33  1  0  0  0
 33 34  1  0  0  0
 34 35  1  0  0  0
 35 36  1  0  0  0
 36 37  1  0  0  0
 37 39  1  0  0  0
 39 40  2  0  0  0
 40 41  1  0  0  0
 41 42  2  0  0  0
 42 43  1  0  0  0
 43 44  2  0  0  0
 44 45  1  0  0  0
 45 46  2  0  0  0
 46 47  1  0  0  0
 47 48  2  0  0  0
 41 49  1  0  0  0
 49 50  1  0  0  0
 50 51  1  0  0  0
 51 52  1  0  0  0
  2  3  1  0  0  0
  3  4  2  0  0  0
  4  5  1  0  0  0
  5  6  2  0  0  0
  6 10  1  0  0  0
 10 11  2  0  0  0
 11 12  1  0  0  0
 12 13  2  0  0  0
 13 16  1  0  0  0
 16 17  1  0  0  0
 17 18  1  0  0  0
 18 19  1  0  0  0
 19 20  1  0  0  0
 20 21  1  0  0  0
 21 22  1  0  0  0
 22 23  1  0  0  0
 23 24  1  0  0  0
 24 25  2  0  0  0
 24 26  1  0  0  0
 13 14  1  0  0  0
 14 15  2  0  0  0
  6  7  1  0  0  0
  7  8  1  0  0  0
  7  9  2  0  0  0
 48 39  1  0  0  0
  9  3  1  0  0  0
 52 40  1  0  0  0
 15 10  1  0  0  0
 48 43  1  0  0  0
 29 30  1  0  0  0
 37 38  1  0  0  0
M  CHG 1  24   1
M  CHG 1  26  -1
M  END
> <minimizedAffinity>
-8.36701

> <CNNscore>
0.1924590170

> <CNNaffinity>
7.6455640793

> <CNN_VS>
1.4714577198

> <CNNaffinity_variance>
1.6242345572

$$$$
[H]c1c([H])c(-c2c([H])c([H])c(C([H])(C(=O)N([H])C([H])([H])C([H])([H])C([H])([H])C([H])([H])C([H])([H])C([H])([H])N([H])c3c4c(nc5c([H])c([H])c([H])c([H])c35)C([H])([H])C([H])([H])C([H])([H])C4([H])[H])C([H])([H])[H])c([H])c2F)c([H])c([H])c1OC([H])([H])C([H])([H])C([H])([H])C([H])([H])C([H])([H])C([H])([H])O[N+](=O)[O-]


 52 56  0  0  0  0  0  0  0  0999 V2000
  -90.7075   25.9922    4.7466 C   0  0  0  0  0  0  0  0  0  0  0  0
  -89.9963   25.3310    3.5699 C   0  0  0  0  0  0  0  0  0  0  0  0
  -89.7400   26.3834    2.5677 C   0  0  0  0  0  0  0  0  0  0  0  0
  -88.4427   26.7335    2.2761 C   0  0  0  0  0  0  0  0  0  0  0  0
  -88.1462   27.7342    1.3494 C   0  0  0  0  0  0  0  0  0  0  0  0
  -89.1654   28.3777    0.7202 C   0  0  0  0  0  0  0  0  0  0  0  0
  -90.4685   28.0434    0.9967 C   0  0  0  0  0  0  0  0  0  0  0  0
  -91.4953   28.6787    0.3835 F   0  0  0  0  0  0  0  0  0  0  0  0
  -90.7574   27.0374    1.9287 C   0  0  0  0  0  0  0  0  0  0  0  0
  -88.8867   29.4182   -0.2522 C   0  0  0  0  0  0  0  0  0  0  0  0
  -89.4024   30.6888   -0.1292 C   0  0  0  0  0  0  0  0  0  0  0  0
  -89.1127   31.6749   -1.0777 C   0  0  0  0  0  0  0  0  0  0  0  0
  -88.3122   31.4407   -2.1695 C   0  0  0  0  0  0  0  0  0  0  0  0
  -87.7915   30.1352   -2.2804 C   0  0  0  0  0  0  0  0  0  0  0  0
  -88.0838   29.1834   -1.3452 C   0  0  0  0  0  0  0  0  0  0  0  0
  -87.9841   32.3475   -3.1449 O   0  0  0  0  0  0  0  0  0  0  0  0
  -87.4175   33.6070   -2.9692 C   0  0  0  0  0  0  0  0  0  0  0  0
  -86.0280   33.4840   -2.4311 C   0  0  0  0  0  0  0  0  0  0  0  0
  -86.0411   33.4853   -0.9308 C   0  0  0  0  0  0  0  0  0  0  0  0
  -84.9110   32.6761   -0.3938 C   0  0  0  0  0  0  0  0  0  0  0  0
  -85.3433   31.6447    0.6169 C   0  0  0  0  0  0  0  0  0  0  0  0
  -84.3455   31.5859    1.7369 C   0  0  0  0  0  0  0  0  0  0  0  0
  -84.5835   30.3810    2.4861 O   0  0  0  0  0  0  0  0  0  0  0  0
  -83.8558   29.2795    2.1056 N   0  0  0  0  0  0  0  0  0  0  0  0
  -82.6146   29.2996    2.0091 O   0  0  0  0  0  0  0  0  0  0  0  0
  -84.5836   28.1363    1.8327 O   0  0  0  0  0  0  0  0  0  0  0  0
  -90.6973   24.1467    3.0782 C   0  0  0  0  0  0  0  0  0  0  0  0
  -91.7451   23.7218    3.6815 O   0  0  0  0  0  0  0  0  0  0  0  0
  -90.3088   23.3941    1.9464 N   0  0  0  0  0  0  0  0  0  0  0  0
  -89.4635   23.7017    1.4233 H   0  0  0  0  0  0  0  0  0  0  0  0
  -91.0120   22.2332    1.4725 C   0  0  0  0  0  0  0  0  0  0  0  0
  -90.8806   22.0481   -0.0201 C   0  0  0  0  0  0  0  0  0  0  0  0
  -89.6311   22.7482   -0.5167 C   0  0  0  0  0  0  0  0  0  0  0  0
  -90.0861   23.7810   -1.5495 C   0  0  0  0  0  0  0  0  0  0  0  0
  -89.4773   25.1059   -1.2907 C   0  0  0  0  0  0  0  0  0  0  0  0
  -89.9677   26.2137   -2.1227 C   0  0  0  0  0  0  0  0  0  0  0  0
  -91.3423   26.3215   -2.3697 N   0  0  0  0  0  0  0  0  0  0  0  0
  -91.9878   26.0551   -1.5345 H   0  0  0  0  0  0  0  0  0  0  0  0
  -92.0700   26.7091   -3.4963 C   0  0  0  0  0  0  0  0  0  0  0  0
  -92.8139   25.7712   -4.1843 C   0  0  0  0  0  0  0  0  0  0  0  0
  -93.5676   26.1639   -5.2655 C   0  0  0  0  0  0  0  0  0  0  0  0
  -93.5680   27.4754   -5.6390 N   0  0  0  0  0  0  0  0  0  0  0  0
  -92.8605   28.4172   -4.9975 C   0  0  0  0  0  0  0  0  0  0  0  0
  -92.8804   29.7337   -5.3913 C   0  0  0  0  0  0  0  0  0  0  0  0
  -92.1576   30.6828   -4.7257 C   0  0  0  0  0  0  0  0  0  0  0  0
  -91.4018   30.2876   -3.6415 C   0  0  0  0  0  0  0  0  0  0  0  0
  -91.3656   28.9865   -3.2312 C   0  0  0  0  0  0  0  0  0  0  0  0
  -92.1019   28.0309   -3.9126 C   0  0  0  0  0  0  0  0  0  0  0  0
  -94.3491   25.1675   -6.0055 C   0  0  0  0  0  0  0  0  0  0  0  0
  -94.8254   23.9993   -5.2145 C   0  0  0  0  0  0  0  0  0  0  0  0
  -94.3240   23.9466   -3.7983 C   0  0  0  0  0  0  0  0  0  0  0  0
  -92.8448   24.3413   -3.7921 C   0  0  0  0  0  0  0  0  0  0  0  0
  1  2  1  0  0  0
  2 27  1  0  0  0
 27 28  2  0  0  0
 27 29  1  0  0  0
 29 31  1  0  0  0
 31 32  1  0  0  0
 32 33  1  0  0  0
 33 34  1  0  0  0
 34 35  1  0  0  0
 35 36  1  0  0  0
 36 37  1  0  0  0
 37 39  1  0  0  0
 39 40  2  0  0  0
 40 41  1  0  0  0
 41 42  2  0  0  0
 42 43  1  0  0  0
 43 44  2  0  0  0
 44 45  1  0  0  0
 45 46  2  0  0  0
 46 47  1  0  0  0
 47 48  2  0  0  0
 41 49  1  0  0  0
 49 50  1  0  0  0
 50 51  1  0  0  0
 51 52  1  0  0  0
  2  3  1  0  0  0
  3  4  2  0  0  0
  4  5  1  0  0  0
  5  6  2  0  0  0
  6 10  1  0  0  0
 10 11  2  0  0  0
 11 12  1  0  0  0
 12 13  2  0  0  0
 13 16  1  0  0  0
 16 17  1  0  0  0
 17 18  1  0  0  0
 18 19  1  0  0  0
 19 20  1  0  0  0
 20 21  1  0  0  0
 21 22  1  0  0  0
 22 23  1  0  0  0
 23 24  1  0  0  0
 24 25  2  0  0  0
 24 26  1  0  0  0
 13 14  1  0  0  0
 14 15  2  0  0  0
  6  7  1  0  0  0
  7  8  1  0  0  0
  7  9  2  0  0  0
 48 39  1  0  0  0
  9  3  1  0  0  0
 52 40  1  0  0  0
 15 10  1  0  0  0
 48 43  1  0  0  0
 29 30  1  0  0  0
 37 38  1  0  0  0
M  CHG 1  24   1
M  CHG 1  26  -1
M  END
> <minimizedAffinity>
-8.15732

> <CNNscore>
0.1889033169

> <CNNaffinity>
7.6492013931

> <CNN_VS>
1.4449595213

> <CNNaffinity_variance>
1.2154333591

$$$$
[H]c1c([H])c(-c2c([H])c([H])c(C([H])(C(=O)N([H])C([H])([H])C([H])([H])C([H])([H])C([H])([H])C([H])([H])C([H])([H])N([H])c3c4c(nc5c([H])c([H])c([H])c([H])c35)C([H])([H])C([H])([H])C([H])([H])C4([H])[H])C([H])([H])[H])c([H])c2F)c([H])c([H])c1OC([H])([H])C([H])([H])C([H])([H])C([H])([H])C([H])([H])C([H])([H])O[N+](=O)[O-]


 52 56  0  0  0  0  0  0  0  0999 V2000
  -84.5252   31.8400    2.7409 C   0  0  0  0  0  0  0  0  0  0  0  0
  -84.6491   30.7640    1.6663 C   0  0  0  0  0  0  0  0  0  0  0  0
  -85.4657   31.3295    0.5748 C   0  0  0  0  0  0  0  0  0  0  0  0
  -86.6577   30.7286    0.2454 C   0  0  0  0  0  0  0  0  0  0  0  0
  -87.4590   31.2127   -0.7898 C   0  0  0  0  0  0  0  0  0  0  0  0
  -87.0503   32.3051   -1.4886 C   0  0  0  0  0  0  0  0  0  0  0  0
  -85.8630   32.9205   -1.1759 C   0  0  0  0  0  0  0  0  0  0  0  0
  -85.4383   34.0056   -1.8661 F   0  0  0  0  0  0  0  0  0  0  0  0
  -85.0643   32.4277   -0.1350 C   0  0  0  0  0  0  0  0  0  0  0  0
  -87.8658   32.8339   -2.5662 C   0  0  0  0  0  0  0  0  0  0  0  0
  -87.7978   32.3321   -3.8466 C   0  0  0  0  0  0  0  0  0  0  0  0
  -88.5999   32.8562   -4.8654 C   0  0  0  0  0  0  0  0  0  0  0  0
  -89.4869   33.8842   -4.6556 C   0  0  0  0  0  0  0  0  0  0  0  0
  -89.5451   34.3861   -3.3394 C   0  0  0  0  0  0  0  0  0  0  0  0
  -88.7551   33.8630   -2.3554 C   0  0  0  0  0  0  0  0  0  0  0  0
  -90.3030   34.4570   -5.5975 O   0  0  0  0  0  0  0  0  0  0  0  0
  -89.9201   35.2557   -6.6715 C   0  0  0  0  0  0  0  0  0  0  0  0
  -89.1597   36.4495   -6.1894 C   0  0  0  0  0  0  0  0  0  0  0  0
  -87.6904   36.2748   -6.4376 C   0  0  0  0  0  0  0  0  0  0  0  0
  -86.9297   36.3328   -5.1578 C   0  0  0  0  0  0  0  0  0  0  0  0
  -86.7349   37.7358   -4.6425 C   0  0  0  0  0  0  0  0  0  0  0  0
  -85.4090   38.2649   -5.1068 C   0  0  0  0  0  0  0  0  0  0  0  0
  -85.6456   39.4655   -5.8632 O   0  0  0  0  0  0  0  0  0  0  0  0
  -86.0378   39.2898   -7.1682 N   0  0  0  0  0  0  0  0  0  0  0  0
  -85.3898   38.5948   -7.9726 O   0  0  0  0  0  0  0  0  0  0  0  0
  -87.2024   39.9332   -7.5434 O   0  0  0  0  0  0  0  0  0  0  0  0
  -85.1063   29.4823    2.1992 C   0  0  0  0  0  0  0  0  0  0  0  0
  -85.4454   29.3811    3.4309 O   0  0  0  0  0  0  0  0  0  0  0  0
  -85.2148   28.2908    1.4462 N   0  0  0  0  0  0  0  0  0  0  0  0
  -84.9511   28.3244    0.4402 H   0  0  0  0  0  0  0  0  0  0  0  0
  -85.6707   27.0381    1.9843 C   0  0  0  0  0  0  0  0  0  0  0  0
  -86.8253   26.4599    1.2021 C   0  0  0  0  0  0  0  0  0  0  0  0
  -87.3440   27.4878    0.2162 C   0  0  0  0  0  0  0  0  0  0  0  0
  -87.9961   26.7100   -0.9285 C   0  0  0  0  0  0  0  0  0  0  0  0
  -89.1622   27.4383   -1.4790 C   0  0  0  0  0  0  0  0  0  0  0  0
  -90.0672   28.0444   -0.4925 C   0  0  0  0  0  0  0  0  0  0  0  0
  -90.9717   27.2244    0.1943 N   0  0  0  0  0  0  0  0  0  0  0  0
  -92.0214   27.3868   -0.0444 H   0  0  0  0  0  0  0  0  0  0  0  0
  -90.7965   26.2182    1.1461 C   0  0  0  0  0  0  0  0  0  0  0  0
  -90.8072   24.8953    0.7507 C   0  0  0  0  0  0  0  0  0  0  0  0
  -90.5872   23.9075    1.6820 C   0  0  0  0  0  0  0  0  0  0  0  0
  -90.3607   24.2526    2.9816 N   0  0  0  0  0  0  0  0  0  0  0  0
  -90.3413   25.5247    3.4062 C   0  0  0  0  0  0  0  0  0  0  0  0
  -90.1071   25.8471    4.7214 C   0  0  0  0  0  0  0  0  0  0  0  0
  -90.0864   27.1478    5.1386 C   0  0  0  0  0  0  0  0  0  0  0  0
  -90.3074   28.1377    4.2038 C   0  0  0  0  0  0  0  0  0  0  0  0
  -90.5423   27.8429    2.8922 C   0  0  0  0  0  0  0  0  0  0  0  0
  -90.5616   26.5208    2.4783 C   0  0  0  0  0  0  0  0  0  0  0  0
  -90.6101   22.5009    1.2668 C   0  0  0  0  0  0  0  0  0  0  0  0
  -90.2004   22.2333   -0.1394 C   0  0  0  0  0  0  0  0  0  0  0  0
  -89.9471   23.4605   -0.9699 C   0  0  0  0  0  0  0  0  0  0  0  0
  -91.0355   24.4909   -0.6577 C   0  0  0  0  0  0  0  0  0  0  0  0
  1  2  1  0  0  0
  2 27  1  0  0  0
 27 28  2  0  0  0
 27 29  1  0  0  0
 29 31  1  0  0  0
 31 32  1  0  0  0
 32 33  1  0  0  0
 33 34  1  0  0  0
 34 35  1  0  0  0
 35 36  1  0  0  0
 36 37  1  0  0  0
 37 39  1  0  0  0
 39 40  2  0  0  0
 40 41  1  0  0  0
 41 42  2  0  0  0
 42 43  1  0  0  0
 43 44  2  0  0  0
 44 45  1  0  0  0
 45 46  2  0  0  0
 46 47  1  0  0  0
 47 48  2  0  0  0
 41 49  1  0  0  0
 49 50  1  0  0  0
 50 51  1  0  0  0
 51 52  1  0  0  0
  2  3  1  0  0  0
  3  4  2  0  0  0
  4  5  1  0  0  0
  5  6  2  0  0  0
  6 10  1  0  0  0
 10 11  2  0  0  0
 11 12  1  0  0  0
 12 13  2  0  0  0
 13 16  1  0  0  0
 16 17  1  0  0  0
 17 18  1  0  0  0
 18 19  1  0  0  0
 19 20  1  0  0  0
 20 21  1  0  0  0
 21 22  1  0  0  0
 22 23  1  0  0  0
 23 24  1  0  0  0
 24 25  2  0  0  0
 24 26  1  0  0  0
 13 14  1  0  0  0
 14 15  2  0  0  0
  6  7  1  0  0  0
  7  8  1  0  0  0
  7  9  2  0  0  0
 48 39  1  0  0  0
  9  3  1  0  0  0
 52 40  1  0  0  0
 15 10  1  0  0  0
 48 43  1  0  0  0
 29 30  1  0  0  0
 37 38  1  0  0  0
M  CHG 1  24   1
M  CHG 1  26  -1
M  END
> <minimizedAffinity>
-8.46783

> <CNNscore>
0.1600005031

> <CNNaffinity>
7.1479692459

> <CNN_VS>
1.1436786652

> <CNNaffinity_variance>
1.4168789387

$$$$
[H]c1c([H])c(-c2c([H])c([H])c(C([H])(C(=O)N([H])C([H])([H])C([H])([H])C([H])([H])C([H])([H])C([H])([H])C([H])([H])N([H])c3c4c(nc5c([H])c([H])c([H])c([H])c35)C([H])([H])C([H])([H])C([H])([H])C4([H])[H])C([H])([H])[H])c([H])c2F)c([H])c([H])c1OC([H])([H])C([H])([H])C([H])([H])C([H])([H])C([H])([H])C([H])([H])O[N+](=O)[O-]


 52 56  0  0  0  0  0  0  0  0999 V2000
  -84.6942   31.7056    2.8919 C   0  0  0  0  0  0  0  0  0  0  0  0
  -84.3663   30.9987    1.5803 C   0  0  0  0  0  0  0  0  0  0  0  0
  -85.0759   31.7203    0.5064 C   0  0  0  0  0  0  0  0  0  0  0  0
  -84.3909   32.6387   -0.2539 C   0  0  0  0  0  0  0  0  0  0  0  0
  -85.0190   33.3608   -1.2699 C   0  0  0  0  0  0  0  0  0  0  0  0
  -86.3400   33.1502   -1.5131 C   0  0  0  0  0  0  0  0  0  0  0  0
  -87.0430   32.2374   -0.7655 C   0  0  0  0  0  0  0  0  0  0  0  0
  -88.3606   32.0202   -0.9906 F   0  0  0  0  0  0  0  0  0  0  0  0
  -86.4045   31.5167    0.2529 C   0  0  0  0  0  0  0  0  0  0  0  0
  -87.0177   33.8824   -2.5669 C   0  0  0  0  0  0  0  0  0  0  0  0
  -87.3737   35.2047   -2.4240 C   0  0  0  0  0  0  0  0  0  0  0  0
  -88.0206   35.8887   -3.4583 C   0  0  0  0  0  0  0  0  0  0  0  0
  -88.3352   35.2947   -4.6565 C   0  0  0  0  0  0  0  0  0  0  0  0
  -87.9634   33.9410   -4.7871 C   0  0  0  0  0  0  0  0  0  0  0  0
  -87.3317   33.2872   -3.7676 C   0  0  0  0  0  0  0  0  0  0  0  0
  -88.9709   35.8908   -5.7157 O   0  0  0  0  0  0  0  0  0  0  0  0
  -88.4434   36.1515   -6.9774 C   0  0  0  0  0  0  0  0  0  0  0  0
  -87.1455   36.8844   -6.8594 C   0  0  0  0  0  0  0  0  0  0  0  0
  -87.3546   38.2298   -6.2292 C   0  0  0  0  0  0  0  0  0  0  0  0
  -86.0792   38.9995   -6.1959 C   0  0  0  0  0  0  0  0  0  0  0  0
  -85.4321   39.0233   -4.8348 C   0  0  0  0  0  0  0  0  0  0  0  0
  -83.9888   38.6285   -4.9547 C   0  0  0  0  0  0  0  0  0  0  0  0
  -83.5981   38.7717   -6.3318 O   0  0  0  0  0  0  0  0  0  0  0  0
  -82.5485   39.6238   -6.5765 N   0  0  0  0  0  0  0  0  0  0  0  0
  -82.5279   40.7959   -6.1569 O   0  0  0  0  0  0  0  0  0  0  0  0
  -81.5062   39.1044   -7.3214 O   0  0  0  0  0  0  0  0  0  0  0  0
  -84.6052   29.5581    1.6390 C   0  0  0  0  0  0  0  0  0  0  0  0
  -83.6228   28.7477    1.7821 O   0  0  0  0  0  0  0  0  0  0  0  0
  -85.8780   28.9496    1.5498 N   0  0  0  0  0  0  0  0  0  0  0  0
  -86.7068   29.5680    1.4337 H   0  0  0  0  0  0  0  0  0  0  0  0
  -86.0972   27.5302    1.6137 C   0  0  0  0  0  0  0  0  0  0  0  0
  -86.9132   27.0193    0.4508 C   0  0  0  0  0  0  0  0  0  0  0  0
  -87.1205   28.1306   -0.5591 C   0  0  0  0  0  0  0  0  0  0  0  0
  -88.5837   28.5623   -0.4444 C   0  0  0  0  0  0  0  0  0  0  0  0
  -89.4334   27.8527   -1.4281 C   0  0  0  0  0  0  0  0  0  0  0  0
  -90.3416   26.8358   -0.8796 C   0  0  0  0  0  0  0  0  0  0  0  0
  -89.8011   25.7407   -0.1934 N   0  0  0  0  0  0  0  0  0  0  0  0
  -88.8992   25.3161   -0.6308 H   0  0  0  0  0  0  0  0  0  0  0  0
  -90.1941   25.0664    0.9642 C   0  0  0  0  0  0  0  0  0  0  0  0
  -90.4173   23.7046    0.9183 C   0  0  0  0  0  0  0  0  0  0  0  0
  -90.7581   23.0342    2.0698 C   0  0  0  0  0  0  0  0  0  0  0  0
  -90.8686   23.7273    3.2389 N   0  0  0  0  0  0  0  0  0  0  0  0
  -90.6594   25.0493    3.3263 C   0  0  0  0  0  0  0  0  0  0  0  0
  -90.7734   25.7247    4.5177 C   0  0  0  0  0  0  0  0  0  0  0  0
  -90.5535   27.0710    4.5921 C   0  0  0  0  0  0  0  0  0  0  0  0
  -90.2120   27.7423    3.4365 C   0  0  0  0  0  0  0  0  0  0  0  0
  -90.0927   27.0940    2.2416 C   0  0  0  0  0  0  0  0  0  0  0  0
  -90.3178   25.7285    2.1757 C   0  0  0  0  0  0  0  0  0  0  0  0
  -91.0076   21.5897    2.0214 C   0  0  0  0  0  0  0  0  0  0  0  0
  -90.2618   20.8377    0.9748 C   0  0  0  0  0  0  0  0  0  0  0  0
  -89.4583   21.6907    0.0333 C   0  0  0  0  0  0  0  0  0  0  0  0
  -90.2896   22.9224   -0.3352 C   0  0  0  0  0  0  0  0  0  0  0  0
  1  2  1  0  0  0
  2 27  1  0  0  0
 27 28  2  0  0  0
 27 29  1  0  0  0
 29 31  1  0  0  0
 31 32  1  0  0  0
 32 33  1  0  0  0
 33 34  1  0  0  0
 34 35  1  0  0  0
 35 36  1  0  0  0
 36 37  1  0  0  0
 37 39  1  0  0  0
 39 40  2  0  0  0
 40 41  1  0  0  0
 41 42  2  0  0  0
 42 43  1  0  0  0
 43 44  2  0  0  0
 44 45  1  0  0  0
 45 46  2  0  0  0
 46 47  1  0  0  0
 47 48  2  0  0  0
 41 49  1  0  0  0
 49 50  1  0  0  0
 50 51  1  0  0  0
 51 52  1  0  0  0
  2  3  1  0  0  0
  3  4  2  0  0  0
  4  5  1  0  0  0
  5  6  2  0  0  0
  6 10  1  0  0  0
 10 11  2  0  0  0
 11 12  1  0  0  0
 12 13  2  0  0  0
 13 16  1  0  0  0
 16 17  1  0  0  0
 17 18  1  0  0  0
 18 19  1  0  0  0
 19 20  1  0  0  0
 20 21  1  0  0  0
 21 22  1  0  0  0
 22 23  1  0  0  0
 23 24  1  0  0  0
 24 25  2  0  0  0
 24 26  1  0  0  0
 13 14  1  0  0  0
 14 15  2  0  0  0
  6  7  1  0  0  0
  7  8  1  0  0  0
  7  9  2  0  0  0
 48 39  1  0  0  0
  9  3  1  0  0  0
 52 40  1  0  0  0
 15 10  1  0  0  0
 48 43  1  0  0  0
 29 30  1  0  0  0
 37 38  1  0  0  0
M  CHG 1  24   1
M  CHG 1  26  -1
M  END
> <minimizedAffinity>
-8.08727

> <CNNscore>
0.1548770368

> <CNNaffinity>
7.4443907738

> <CNN_VS>
1.1529651880

> <CNNaffinity_variance>
0.2849157155

$$$$
[H]c1c([H])c(-c2c([H])c([H])c(C([H])(C(=O)N([H])C([H])([H])C([H])([H])C([H])([H])C([H])([H])C([H])([H])C([H])([H])N([H])c3c4c(nc5c([H])c([H])c([H])c([H])c35)C([H])([H])C([H])([H])C([H])([H])C4([H])[H])C([H])([H])[H])c([H])c2F)c([H])c([H])c1OC([H])([H])C([H])([H])C([H])([H])C([H])([H])C([H])([H])C([H])([H])O[N+](=O)[O-]


 52 56  0  0  0  0  0  0  0  0999 V2000
  -90.2082   35.7270   -4.0641 C   0  0  0  0  0  0  0  0  0  0  0  0
  -89.2026   34.8406   -4.7926 C   0  0  0  0  0  0  0  0  0  0  0  0
  -88.8442   33.7419   -3.8749 C   0  0  0  0  0  0  0  0  0  0  0  0
  -88.4314   32.5380   -4.3953 C   0  0  0  0  0  0  0  0  0  0  0  0
  -88.0979   31.4615   -3.5719 C   0  0  0  0  0  0  0  0  0  0  0  0
  -88.1834   31.6077   -2.2229 C   0  0  0  0  0  0  0  0  0  0  0  0
  -88.5935   32.8018   -1.6823 C   0  0  0  0  0  0  0  0  0  0  0  0
  -88.6901   32.9621   -0.3410 F   0  0  0  0  0  0  0  0  0  0  0  0
  -88.9266   33.8777   -2.5163 C   0  0  0  0  0  0  0  0  0  0  0  0
  -87.8374   30.5073   -1.3423 C   0  0  0  0  0  0  0  0  0  0  0  0
  -86.5673   29.9772   -1.3012 C   0  0  0  0  0  0  0  0  0  0  0  0
  -86.2592   28.9206   -0.4383 C   0  0  0  0  0  0  0  0  0  0  0  0
  -87.1867   28.3572    0.4042 C   0  0  0  0  0  0  0  0  0  0  0  0
  -88.4819   28.9117    0.3506 C   0  0  0  0  0  0  0  0  0  0  0  0
  -88.7666   29.9439   -0.4977 C   0  0  0  0  0  0  0  0  0  0  0  0
  -86.9684   27.3194    1.2740 O   0  0  0  0  0  0  0  0  0  0  0  0
  -85.7520   26.9177    1.8192 C   0  0  0  0  0  0  0  0  0  0  0  0
  -85.0530   28.0798    2.4489 C   0  0  0  0  0  0  0  0  0  0  0  0
  -83.5702   27.8523    2.4756 C   0  0  0  0  0  0  0  0  0  0  0  0
  -82.8394   29.1025    2.1248 C   0  0  0  0  0  0  0  0  0  0  0  0
  -83.7532   30.2570    1.8017 C   0  0  0  0  0  0  0  0  0  0  0  0
  -82.9756   31.3380    1.1086 C   0  0  0  0  0  0  0  0  0  0  0  0
  -83.6068   31.6029   -0.1567 O   0  0  0  0  0  0  0  0  0  0  0  0
  -84.2181   32.8270   -0.2822 N   0  0  0  0  0  0  0  0  0  0  0  0
  -85.4225   33.0022   -0.0195 O   0  0  0  0  0  0  0  0  0  0  0  0
  -83.4156   33.8637   -0.7206 O   0  0  0  0  0  0  0  0  0  0  0  0
  -88.0794   35.5950   -5.3448 C   0  0  0  0  0  0  0  0  0  0  0  0
  -86.9793   35.6816   -4.6930 O   0  0  0  0  0  0  0  0  0  0  0  0
  -88.0955   36.2669   -6.5884 N   0  0  0  0  0  0  0  0  0  0  0  0
  -88.9677   36.2240   -7.1542 H   0  0  0  0  0  0  0  0  0  0  0  0
  -86.9801   37.0017   -7.1201 C   0  0  0  0  0  0  0  0  0  0  0  0
  -87.3835   37.9373   -8.2341 C   0  0  0  0  0  0  0  0  0  0  0  0
  -88.7803   38.4680   -7.9790 C   0  0  0  0  0  0  0  0  0  0  0  0
  -88.8490   39.8542   -8.6226 C   0  0  0  0  0  0  0  0  0  0  0  0
  -87.5077   40.3198   -9.0433 C   0  0  0  0  0  0  0  0  0  0  0  0
  -87.0853   41.6258   -8.5183 C   0  0  0  0  0  0  0  0  0  0  0  0
  -86.5031   41.6910   -7.2460 N   0  0  0  0  0  0  0  0  0  0  0  0
  -86.3734   42.6944   -6.8440 H   0  0  0  0  0  0  0  0  0  0  0  0
  -86.0433   40.7075   -6.3682 C   0  0  0  0  0  0  0  0  0  0  0  0
  -84.7822   40.1728   -6.5424 C   0  0  0  0  0  0  0  0  0  0  0  0
  -84.3126   39.2386   -5.6491 C   0  0  0  0  0  0  0  0  0  0  0  0
  -85.1016   38.8569   -4.6045 N   0  0  0  0  0  0  0  0  0  0  0  0
  -86.3310   39.3522   -4.3994 C   0  0  0  0  0  0  0  0  0  0  0  0
  -87.1057   38.9539   -3.3364 C   0  0  0  0  0  0  0  0  0  0  0  0
  -88.3548   39.4703   -3.1380 C   0  0  0  0  0  0  0  0  0  0  0  0
  -88.8249   40.4071   -4.0347 C   0  0  0  0  0  0  0  0  0  0  0  0
  -88.0748   40.8185   -5.0980 C   0  0  0  0  0  0  0  0  0  0  0  0
  -86.8090   40.2891   -5.2912 C   0  0  0  0  0  0  0  0  0  0  0  0
  -82.9781   38.6600   -5.8387 C   0  0  0  0  0  0  0  0  0  0  0  0
  -81.9822   39.5357   -6.5156 C   0  0  0  0  0  0  0  0  0  0  0  0
  -82.5282   40.8408   -7.0240 C   0  0  0  0  0  0  0  0  0  0  0  0
  -83.8962   40.5798   -7.6599 C   0  0  0  0  0  0  0  0  0  0  0  0
  1  2  1  0  0  0
  2 27  1  0  0  0
 27 28  2  0  0  0
 27 29  1  0  0  0
 29 31  1  0  0  0
 31 32  1  0  0  0
 32 33  1  0  0  0
 33 34  1  0  0  0
 34 35  1  0  0  0
 35 36  1  0  0  0
 36 37  1  0  0  0
 37 39  1  0  0  0
 39 40  2  0  0  0
 40 41  1  0  0  0
 41 42  2  0  0  0
 42 43  1  0  0  0
 43 44  2  0  0  0
 44 45  1  0  0  0
 45 46  2  0  0  0
 46 47  1  0  0  0
 47 48  2  0  0  0
 41 49  1  0  0  0
 49 50  1  0  0  0
 50 51  1  0  0  0
 51 52  1  0  0  0
  2  3  1  0  0  0
  3  4  2  0  0  0
  4  5  1  0  0  0
  5  6  2  0  0  0
  6 10  1  0  0  0
 10 11  2  0  0  0
 11 12  1  0  0  0
 12 13  2  0  0  0
 13 16  1  0  0  0
 16 17  1  0  0  0
 17 18  1  0  0  0
 18 19  1  0  0  0
 19 20  1  0  0  0
 20 21  1  0  0  0
 21 22  1  0  0  0
 22 23  1  0  0  0
 23 24  1  0  0  0
 24 25  2  0  0  0
 24 26  1  0  0  0
 13 14  1  0  0  0
 14 15  2  0  0  0
  6  7  1  0  0  0
  7  8  1  0  0  0
  7  9  2  0  0  0
 48 39  1  0  0  0
  9  3  1  0  0  0
 52 40  1  0  0  0
 15 10  1  0  0  0
 48 43  1  0  0  0
 29 30  1  0  0  0
 37 38  1  0  0  0
M  CHG 1  24   1
M  CHG 1  26  -1
M  END
> <minimizedAffinity>
-7.83280

> <CNNscore>
0.1528642327

> <CNNaffinity>
6.9658570290

> <CNN_VS>
1.0648304224

> <CNNaffinity_variance>
0.8504942656

$$$$
[H]c1c([H])c(-c2c([H])c([H])c(C([H])(C(=O)N([H])C([H])([H])C([H])([H])C([H])([H])C([H])([H])C([H])([H])C([H])([H])N([H])c3c4c(nc5c([H])c([H])c([H])c([H])c35)C([H])([H])C([H])([H])C([H])([H])C4([H])[H])C([H])([H])[H])c([H])c2F)c([H])c([H])c1OC([H])([H])C([H])([H])C([H])([H])C([H])([H])C([H])([H])C([H])([H])O[N+](=O)[O-]


 52 56  0  0  0  0  0  0  0  0999 V2000
  -85.0871   30.6453    3.1183 C   0  0  0  0  0  0  0  0  0  0  0  0
  -84.8107   29.9836    1.7717 C   0  0  0  0  0  0  0  0  0  0  0  0
  -85.4851   30.7952    0.7401 C   0  0  0  0  0  0  0  0  0  0  0  0
  -85.2906   32.1562    0.7211 C   0  0  0  0  0  0  0  0  0  0  0  0
  -85.9183   32.9713   -0.2221 C   0  0  0  0  0  0  0  0  0  0  0  0
  -86.7417   32.4051   -1.1440 C   0  0  0  0  0  0  0  0  0  0  0  0
  -86.9498   31.0475   -1.1427 C   0  0  0  0  0  0  0  0  0  0  0  0
  -87.7717   30.4683   -2.0501 F   0  0  0  0  0  0  0  0  0  0  0  0
  -86.3156   30.2363   -0.1920 C   0  0  0  0  0  0  0  0  0  0  0  0
  -87.4032   33.2273   -2.1402 C   0  0  0  0  0  0  0  0  0  0  0  0
  -88.7545   33.4869   -2.0916 C   0  0  0  0  0  0  0  0  0  0  0  0
  -89.3658   34.2881   -3.0613 C   0  0  0  0  0  0  0  0  0  0  0  0
  -88.6694   34.8536   -4.1019 C   0  0  0  0  0  0  0  0  0  0  0  0
  -87.2870   34.5788   -4.1369 C   0  0  0  0  0  0  0  0  0  0  0  0
  -86.7050   33.7945   -3.1819 C   0  0  0  0  0  0  0  0  0  0  0  0
  -89.1920   35.6442   -5.0935 O   0  0  0  0  0  0  0  0  0  0  0  0
  -90.5199   35.7122   -5.5059 C   0  0  0  0  0  0  0  0  0  0  0  0
  -90.6405   35.3219   -6.9443 C   0  0  0  0  0  0  0  0  0  0  0  0
  -91.3495   34.0063   -7.0764 C   0  0  0  0  0  0  0  0  0  0  0  0
  -91.7850   33.5066   -5.7419 C   0  0  0  0  0  0  0  0  0  0  0  0
  -92.5863   32.2320   -5.8146 C   0  0  0  0  0  0  0  0  0  0  0  0
  -92.7722   31.6728   -4.4339 C   0  0  0  0  0  0  0  0  0  0  0  0
  -91.4906   31.6569   -3.7807 O   0  0  0  0  0  0  0  0  0  0  0  0
  -90.6616   30.6095   -4.1024 N   0  0  0  0  0  0  0  0  0  0  0  0
  -90.9810   29.4215   -3.9105 O   0  0  0  0  0  0  0  0  0  0  0  0
  -89.4413   30.9495   -4.6560 O   0  0  0  0  0  0  0  0  0  0  0  0
  -85.1327   28.5581    1.7652 C   0  0  0  0  0  0  0  0  0  0  0  0
  -84.2186   27.6904    1.9974 O   0  0  0  0  0  0  0  0  0  0  0  0
  -86.4180   28.0249    1.5164 N   0  0  0  0  0  0  0  0  0  0  0  0
  -87.1932   28.6917    1.3234 H   0  0  0  0  0  0  0  0  0  0  0  0
  -86.7198   26.6193    1.5178 C   0  0  0  0  0  0  0  0  0  0  0  0
  -87.7822   26.2561    0.5085 C   0  0  0  0  0  0  0  0  0  0  0  0
  -87.4239   26.8352   -0.8457 C   0  0  0  0  0  0  0  0  0  0  0  0
  -88.7249   27.3546   -1.4606 C   0  0  0  0  0  0  0  0  0  0  0  0
  -89.4317   28.2681   -0.5338 C   0  0  0  0  0  0  0  0  0  0  0  0
  -90.8998   28.2122   -0.5692 C   0  0  0  0  0  0  0  0  0  0  0  0
  -91.5746   27.4540    0.3962 N   0  0  0  0  0  0  0  0  0  0  0  0
  -92.6191   27.7196    0.5503 H   0  0  0  0  0  0  0  0  0  0  0  0
  -91.1700   26.4029    1.2212 C   0  0  0  0  0  0  0  0  0  0  0  0
  -91.1161   25.1196    0.7147 C   0  0  0  0  0  0  0  0  0  0  0  0
  -90.6721   24.0930    1.5149 C   0  0  0  0  0  0  0  0  0  0  0  0
  -90.2911   24.3613    2.7964 N   0  0  0  0  0  0  0  0  0  0  0  0
  -90.3275   25.5930    3.3260 C   0  0  0  0  0  0  0  0  0  0  0  0
  -89.9344   25.8384    4.6198 C   0  0  0  0  0  0  0  0  0  0  0  0
  -89.9732   27.0992    5.1445 C   0  0  0  0  0  0  0  0  0  0  0  0
  -90.4189   28.1280    4.3410 C   0  0  0  0  0  0  0  0  0  0  0  0
  -90.8147   27.9097    3.0533 C   0  0  0  0  0  0  0  0  0  0  0  0
  -90.7720   26.6275    2.5299 C   0  0  0  0  0  0  0  0  0  0  0  0
  -90.6254   22.7268    0.9832 C   0  0  0  0  0  0  0  0  0  0  0  0
  -90.4025   22.6096   -0.4844 C   0  0  0  0  0  0  0  0  0  0  0  0
  -90.3877   23.9154   -1.2290 C   0  0  0  0  0  0  0  0  0  0  0  0
  -91.5094   24.8005   -0.6792 C   0  0  0  0  0  0  0  0  0  0  0  0
  1  2  1  0  0  0
  2 27  1  0  0  0
 27 28  2  0  0  0
 27 29  1  0  0  0
 29 31  1  0  0  0
 31 32  1  0  0  0
 32 33  1  0  0  0
 33 34  1  0  0  0
 34 35  1  0  0  0
 35 36  1  0  0  0
 36 37  1  0  0  0
 37 39  1  0  0  0
 39 40  2  0  0  0
 40 41  1  0  0  0
 41 42  2  0  0  0
 42 43  1  0  0  0
 43 44  2  0  0  0
 44 45  1  0  0  0
 45 46  2  0  0  0
 46 47  1  0  0  0
 47 48  2  0  0  0
 41 49  1  0  0  0
 49 50  1  0  0  0
 50 51  1  0  0  0
 51 52  1  0  0  0
  2  3  1  0  0  0
  3  4  2  0  0  0
  4  5  1  0  0  0
  5  6  2  0  0  0
  6 10  1  0  0  0
 10 11  2  0  0  0
 11 12  1  0  0  0
 12 13  2  0  0  0
 13 16  1  0  0  0
 16 17  1  0  0  0
 17 18  1  0  0  0
 18 19  1  0  0  0
 19 20  1  0  0  0
 20 21  1  0  0  0
 21 22  1  0  0  0
 22 23  1  0  0  0
 23 24  1  0  0  0
 24 25  2  0  0  0
 24 26  1  0  0  0
 13 14  1  0  0  0
 14 15  2  0  0  0
  6  7  1  0  0  0
  7  8  1  0  0  0
  7  9  2  0  0  0
 48 39  1  0  0  0
  9  3  1  0  0  0
 52 40  1  0  0  0
 15 10  1  0  0  0
 48 43  1  0  0  0
 29 30  1  0  0  0
 37 38  1  0  0  0
M  CHG 1  24   1
M  CHG 1  26  -1
M  END
> <minimizedAffinity>
-8.30897

> <CNNscore>
0.1328008622

> <CNNaffinity>
7.2534651756

> <CNN_VS>
0.9632664323

> <CNNaffinity_variance>
1.9289257526

$$$$
[H]OC(=O)[C@@]([H])(N([H])[H])C([H])([H])OP(=O)(O[H])O[C@]1([H])C([H])([H])C([H])([H])C([H])([H])O[C@]1([H])C([H])([H])OC(=O)C([H])([H])C([H])([H])c1c([H])c([H])c([H])c([H])c1OC([H])([H])c1c([H])c([H])c([H])c(Oc2c([H])c([H])c(C([H])([H])[H])c([H])c2[H])c1[H]


 49 52  0  0  0  0  0  0  0  0999 V2000
  -85.3664   27.5756    2.0781 C   0  0  0  0  0  0  0  0  0  0  0  0
  -84.4519   26.8020    2.4061 O   0  0  0  0  0  0  0  0  0  0  0  0
  -86.4376   27.0286    1.3323 O   0  0  0  0  0  0  0  0  0  0  0  0
  -87.5034   26.3623    1.8490 C   0  0  0  0  0  0  0  0  0  0  0  0
  -88.6417   27.1368    2.4414 C   0  0  0  0  0  0  0  0  0  0  0  0
  -89.1920   28.0539    1.5856 O   0  0  0  0  0  0  0  0  0  0  0  0
  -90.5444   28.2601    1.6963 C   0  0  0  0  0  0  0  0  0  0  0  0
  -91.1056   28.1695    3.0797 C   0  0  0  0  0  0  0  0  0  0  0  0
  -90.5853   27.0328    3.8858 C   0  0  0  0  0  0  0  0  0  0  0  0
  -89.6969   26.1747    3.0022 C   0  0  0  0  0  0  0  0  0  0  0  0
  -90.3922   25.4896    2.0510 O   0  0  0  0  0  0  0  0  0  0  0  0
  -91.0708   24.0452    2.5348 P   0  0  0  0  0  0  0  0  0  0  0  0
  -91.3734   23.9529    3.9937 O   0  0  0  0  0  0  0  0  0  0  0  0
  -92.5475   23.7484    1.7191 O   0  0  0  0  0  0  0  0  0  0  0  0
  -92.3665   23.2718    0.8946 H   0  0  0  0  0  0  0  0  0  0  0  0
  -90.0140   22.8005    2.0438 O   0  0  0  0  0  0  0  0  0  0  0  0
  -90.3997   22.2314    0.8330 C   0  0  0  0  0  0  0  0  0  0  0  0
  -90.7082   20.7730    1.1344 C   0  0  0  0  0  0  0  0  0  0  0  0
  -92.1113   20.6606    1.4166 N   0  0  0  0  0  0  0  0  0  0  0  0
  -92.6916   20.6019    0.5772 H   0  0  0  0  0  0  0  0  0  0  0  0
  -92.3459   20.0148    2.1816 H   0  0  0  0  0  0  0  0  0  0  0  0
  -89.8398   20.1898    2.1612 C   0  0  0  0  0  0  0  0  0  0  0  0
  -90.3143   19.6344    3.1757 O   0  0  0  0  0  0  0  0  0  0  0  0
  -88.4661   20.2453    2.0240 O   0  0  0  0  0  0  0  0  0  0  0  0
  -87.9127   19.7772    1.3461 H   0  0  0  0  0  0  0  0  0  0  0  0
  -85.3970   28.9971    2.4054 C   0  0  0  0  0  0  0  0  0  0  0  0
  -85.9101   29.9649    1.4215 C   0  0  0  0  0  0  0  0  0  0  0  0
  -85.2712   31.9532   -0.0055 C   0  0  0  0  0  0  0  0  0  0  0  0
  -84.2789   32.7761   -0.4644 C   0  0  0  0  0  0  0  0  0  0  0  0
  -82.9219   32.5436   -0.2053 C   0  0  0  0  0  0  0  0  0  0  0  0
  -82.5986   31.4374    0.5426 C   0  0  0  0  0  0  0  0  0  0  0  0
  -83.5723   30.5996    1.0162 C   0  0  0  0  0  0  0  0  0  0  0  0
  -84.9088   30.8419    0.7548 C   0  0  0  0  0  0  0  0  0  0  0  0
  -86.5725   32.1910   -0.2820 O   0  0  0  0  0  0  0  0  0  0  0  0
  -87.3884   31.8765   -1.3341 C   0  0  0  0  0  0  0  0  0  0  0  0
  -89.2687   34.4575   -3.3757 C   0  0  0  0  0  0  0  0  0  0  0  0
  -88.2377   35.2317   -3.9140 C   0  0  0  0  0  0  0  0  0  0  0  0
  -86.9584   34.8612   -3.5786 C   0  0  0  0  0  0  0  0  0  0  0  0
  -86.6970   33.7891   -2.7585 C   0  0  0  0  0  0  0  0  0  0  0  0
  -87.7378   33.0371   -2.2360 C   0  0  0  0  0  0  0  0  0  0  0  0
  -89.0164   33.3858   -2.5555 C   0  0  0  0  0  0  0  0  0  0  0  0
  -90.5533   34.8393   -3.7258 O   0  0  0  0  0  0  0  0  0  0  0  0
  -93.1724   33.4042   -8.4714 C   0  0  0  0  0  0  0  0  0  0  0  0
  -92.4841   33.7904   -7.2238 C   0  0  0  0  0  0  0  0  0  0  0  0
  -91.9467   35.0642   -7.0949 C   0  0  0  0  0  0  0  0  0  0  0  0
  -91.3021   35.3932   -5.9052 C   0  0  0  0  0  0  0  0  0  0  0  0
  -91.1875   34.4983   -4.8733 C   0  0  0  0  0  0  0  0  0  0  0  0
  -91.7363   33.2253   -5.0284 C   0  0  0  0  0  0  0  0  0  0  0  0
  -92.3801   32.8654   -6.1878 C   0  0  0  0  0  0  0  0  0  0  0  0
 43 44  1  0  0  0
 44 45  2  0  0  0
 45 46  1  0  0  0
 46 47  2  0  0  0
 47 42  1  0  0  0
 42 36  1  0  0  0
 36 37  2  0  0  0
 37 38  1  0  0  0
 38 39  2  0  0  0
 39 40  1  0  0  0
 40 35  1  0  0  0
 35 34  1  0  0  0
 34 28  1  0  0  0
 28 29  2  0  0  0
 29 30  1  0  0  0
 30 31  2  0  0  0
 31 32  1  0  0  0
 32 33  2  0  0  0
 33 27  1  0  0  0
 27 26  1  0  0  0
 26  1  1  0  0  0
  1  2  2  0  0  0
  1  3  1  0  0  0
  3  4  1  0  0  0
  4  5  1  0  0  0
  5  6  1  0  0  0
  6  7  1  0  0  0
  7  8  1  0  0  0
  8  9  1  0  0  0
  9 10  1  0  0  0
 10 11  1  0  0  0
 11 12  1  0  0  0
 12 13  2  0  0  0
 12 14  1  0  0  0
 12 16  1  0  0  0
 16 17  1  0  0  0
 17 18  1  0  0  0
 18 19  1  0  0  0
 18 22  1  0  0  0
 22 23  2  0  0  0
 22 24  1  0  0  0
 40 41  2  0  0  0
 47 48  1  0  0  0
 48 49  2  0  0  0
 49 44  1  0  0  0
 41 36  1  0  0  0
 33 28  1  0  0  0
 10  5  1  0  0  0
 14 15  1  0  0  0
 19 20  1  0  0  0
 19 21  1  0  0  0
 24 25  1  0  0  0
M  END
> <minimizedAffinity>
-8.76269

> <CNNscore>
0.8166362047

> <CNNaffinity>
7.0753340721

> <CNN_VS>
5.7779741287

> <CNNaffinity_variance>
0.1104248390

$$$$
[H]OC(=O)[C@@]([H])(N([H])[H])C([H])([H])OP(=O)(O[H])O[C@]1([H])C([H])([H])C([H])([H])C([H])([H])O[C@]1([H])C([H])([H])OC(=O)C([H])([H])C([H])([H])c1c([H])c([H])c([H])c([H])c1OC([H])([H])c1c([H])c([H])c([H])c(Oc2c([H])c([H])c(C([H])([H])[H])c([H])c2[H])c1[H]


 49 52  0  0  0  0  0  0  0  0999 V2000
  -85.7032   27.6021    1.9010 C   0  0  0  0  0  0  0  0  0  0  0  0
  -84.9636   26.6689    2.2540 O   0  0  0  0  0  0  0  0  0  0  0  0
  -86.8637   27.2625    1.1656 O   0  0  0  0  0  0  0  0  0  0  0  0
  -87.8327   26.3995    1.5693 C   0  0  0  0  0  0  0  0  0  0  0  0
  -88.5750   26.6665    2.8438 C   0  0  0  0  0  0  0  0  0  0  0  0
  -89.2580   27.8538    2.8482 O   0  0  0  0  0  0  0  0  0  0  0  0
  -90.4448   27.8747    3.5373 C   0  0  0  0  0  0  0  0  0  0  0  0
  -90.4946   27.0343    4.7735 C   0  0  0  0  0  0  0  0  0  0  0  0
  -89.8869   25.6843    4.6295 C   0  0  0  0  0  0  0  0  0  0  0  0
  -89.4894   25.4808    3.1780 C   0  0  0  0  0  0  0  0  0  0  0  0
  -90.5600   25.3469    2.3451 O   0  0  0  0  0  0  0  0  0  0  0  0
  -91.2245   23.8209    2.2427 P   0  0  0  0  0  0  0  0  0  0  0  0
  -91.6355   23.2277    3.5495 O   0  0  0  0  0  0  0  0  0  0  0  0
  -92.6229   23.8172    1.2536 O   0  0  0  0  0  0  0  0  0  0  0  0
  -92.3627   23.6565    0.3336 H   0  0  0  0  0  0  0  0  0  0  0  0
  -90.0914   22.8285    1.4438 O   0  0  0  0  0  0  0  0  0  0  0  0
  -90.6403   21.6073    1.0616 C   0  0  0  0  0  0  0  0  0  0  0  0
  -90.1516   20.5902    2.0813 C   0  0  0  0  0  0  0  0  0  0  0  0
  -88.7537   20.3593    1.8497 N   0  0  0  0  0  0  0  0  0  0  0  0
  -88.1489   21.0651    2.2753 H   0  0  0  0  0  0  0  0  0  0  0  0
  -88.4567   19.3802    1.9514 H   0  0  0  0  0  0  0  0  0  0  0  0
  -90.9627   19.3703    2.1280 C   0  0  0  0  0  0  0  0  0  0  0  0
  -91.9048   19.2461    2.9403 O   0  0  0  0  0  0  0  0  0  0  0  0
  -90.6964   18.3243    1.2654 O   0  0  0  0  0  0  0  0  0  0  0  0
  -90.8125   18.3167    0.2798 H   0  0  0  0  0  0  0  0  0  0  0  0
  -85.4454   29.0089    2.1895 C   0  0  0  0  0  0  0  0  0  0  0  0
  -85.9542   30.0488    1.2798 C   0  0  0  0  0  0  0  0  0  0  0  0
  -85.3005   32.0329   -0.1463 C   0  0  0  0  0  0  0  0  0  0  0  0
  -84.3108   32.8801   -0.5650 C   0  0  0  0  0  0  0  0  0  0  0  0
  -82.9635   32.6963   -0.2277 C   0  0  0  0  0  0  0  0  0  0  0  0
  -82.6474   31.6138    0.5571 C   0  0  0  0  0  0  0  0  0  0  0  0
  -83.6188   30.7527    0.9918 C   0  0  0  0  0  0  0  0  0  0  0  0
  -84.9458   30.9468    0.6531 C   0  0  0  0  0  0  0  0  0  0  0  0
  -86.5913   32.2235   -0.4982 O   0  0  0  0  0  0  0  0  0  0  0  0
  -87.3643   31.7781   -1.5352 C   0  0  0  0  0  0  0  0  0  0  0  0
  -89.0053   28.3661   -1.3606 C   0  0  0  0  0  0  0  0  0  0  0  0
  -90.0518   28.5759   -0.4589 C   0  0  0  0  0  0  0  0  0  0  0  0
  -90.1711   29.8454    0.0516 C   0  0  0  0  0  0  0  0  0  0  0  0
  -89.3122   30.8601   -0.2992 C   0  0  0  0  0  0  0  0  0  0  0  0
  -88.2808   30.6261   -1.1953 C   0  0  0  0  0  0  0  0  0  0  0  0
  -88.1429   29.3736   -1.7157 C   0  0  0  0  0  0  0  0  0  0  0  0
  -88.8996   27.0829   -1.8712 O   0  0  0  0  0  0  0  0  0  0  0  0
  -93.1967   23.7455   -3.2265 C   0  0  0  0  0  0  0  0  0  0  0  0
  -92.0698   24.6311   -2.8726 C   0  0  0  0  0  0  0  0  0  0  0  0
  -91.9462   25.8723   -3.4823 C   0  0  0  0  0  0  0  0  0  0  0  0
  -90.8694   26.6804   -3.1261 C   0  0  0  0  0  0  0  0  0  0  0  0
  -89.9411   26.2813   -2.2000 C   0  0  0  0  0  0  0  0  0  0  0  0
  -90.0884   25.0297   -1.6022 C   0  0  0  0  0  0  0  0  0  0  0  0
  -91.1386   24.2056   -1.9282 C   0  0  0  0  0  0  0  0  0  0  0  0
 43 44  1  0  0  0
 44 45  2  0  0  0
 45 46  1  0  0  0
 46 47  2  0  0  0
 47 42  1  0  0  0
 42 36  1  0  0  0
 36 37  2  0  0  0
 37 38  1  0  0  0
 38 39  2  0  0  0
 39 40  1  0  0  0
 40 35  1  0  0  0
 35 34  1  0  0  0
 34 28  1  0  0  0
 28 29  2  0  0  0
 29 30  1  0  0  0
 30 31  2  0  0  0
 31 32  1  0  0  0
 32 33  2  0  0  0
 33 27  1  0  0  0
 27 26  1  0  0  0
 26  1  1  0  0  0
  1  2  2  0  0  0
  1  3  1  0  0  0
  3  4  1  0  0  0
  4  5  1  0  0  0
  5  6  1  0  0  0
  6  7  1  0  0  0
  7  8  1  0  0  0
  8  9  1  0  0  0
  9 10  1  0  0  0
 10 11  1  0  0  0
 11 12  1  0  0  0
 12 13  2  0  0  0
 12 14  1  0  0  0
 12 16  1  0  0  0
 16 17  1  0  0  0
 17 18  1  0  0  0
 18 19  1  0  0  0
 18 22  1  0  0  0
 22 23  2  0  0  0
 22 24  1  0  0  0
 40 41  2  0  0  0
 47 48  1  0  0  0
 48 49  2  0  0  0
 49 44  1  0  0  0
 41 36  1  0  0  0
 33 28  1  0  0  0
 10  5  1  0  0  0
 14 15  1  0  0  0
 19 20  1  0  0  0
 19 21  1  0  0  0
 24 25  1  0  0  0
M  END
> <minimizedAffinity>
-9.27267

> <CNNscore>
0.4798869789

> <CNNaffinity>
6.9683847427

> <CNN_VS>
3.3440370560

> <CNNaffinity_variance>
0.1288635433

$$$$
[H]OC(=O)[C@@]([H])(N([H])[H])C([H])([H])OP(=O)(O[H])O[C@]1([H])C([H])([H])C([H])([H])C([H])([H])O[C@]1([H])C([H])([H])OC(=O)C([H])([H])C([H])([H])c1c([H])c([H])c([H])c([H])c1OC([H])([H])c1c([H])c([H])c([H])c(Oc2c([H])c([H])c(C([H])([H])[H])c([H])c2[H])c1[H]


 49 52  0  0  0  0  0  0  0  0999 V2000
  -85.4678   27.4977    2.0489 C   0  0  0  0  0  0  0  0  0  0  0  0
  -84.5849   26.7107    2.4276 O   0  0  0  0  0  0  0  0  0  0  0  0
  -86.5257   26.9584    1.2789 O   0  0  0  0  0  0  0  0  0  0  0  0
  -87.6271   26.3346    1.7735 C   0  0  0  0  0  0  0  0  0  0  0  0
  -88.7207   27.1497    2.3948 C   0  0  0  0  0  0  0  0  0  0  0  0
  -89.2274   28.1175    1.5684 O   0  0  0  0  0  0  0  0  0  0  0  0
  -90.5667   28.3899    1.6939 C   0  0  0  0  0  0  0  0  0  0  0  0
  -91.1245   28.2895    3.0780 C   0  0  0  0  0  0  0  0  0  0  0  0
  -90.6594   27.1054    3.8488 C   0  0  0  0  0  0  0  0  0  0  0  0
  -89.8212   26.2278    2.9358 C   0  0  0  0  0  0  0  0  0  0  0  0
  -90.5560   25.6064    1.9706 O   0  0  0  0  0  0  0  0  0  0  0  0
  -91.1548   24.0994    2.3595 P   0  0  0  0  0  0  0  0  0  0  0  0
  -91.5474   23.9315    3.7899 O   0  0  0  0  0  0  0  0  0  0  0  0
  -92.5465   23.7259    1.4333 O   0  0  0  0  0  0  0  0  0  0  0  0
  -92.2748   23.2945    0.6087 H   0  0  0  0  0  0  0  0  0  0  0  0
  -89.9765   22.9542    1.9044 O   0  0  0  0  0  0  0  0  0  0  0  0
  -90.1368   22.5306    0.5878 C   0  0  0  0  0  0  0  0  0  0  0  0
  -90.4211   21.0383    0.6588 C   0  0  0  0  0  0  0  0  0  0  0  0
  -91.7276   20.8043    0.1119 N   0  0  0  0  0  0  0  0  0  0  0  0
  -91.7375   20.7498   -0.9088 H   0  0  0  0  0  0  0  0  0  0  0  0
  -92.2842   20.1002    0.6135 H   0  0  0  0  0  0  0  0  0  0  0  0
  -90.2160   20.4649    1.9921 C   0  0  0  0  0  0  0  0  0  0  0  0
  -89.1287   19.9383    2.3136 O   0  0  0  0  0  0  0  0  0  0  0  0
  -91.2329   20.4966    2.9269 O   0  0  0  0  0  0  0  0  0  0  0  0
  -91.6114   21.2983    3.3730 H   0  0  0  0  0  0  0  0  0  0  0  0
  -85.4743   28.9273    2.3408 C   0  0  0  0  0  0  0  0  0  0  0  0
  -86.0250   29.8738    1.3565 C   0  0  0  0  0  0  0  0  0  0  0  0
  -85.4780   31.8518   -0.1222 C   0  0  0  0  0  0  0  0  0  0  0  0
  -84.5456   32.7645   -0.5344 C   0  0  0  0  0  0  0  0  0  0  0  0
  -83.2039   32.7101   -0.1346 C   0  0  0  0  0  0  0  0  0  0  0  0
  -82.8329   31.6890    0.7065 C   0  0  0  0  0  0  0  0  0  0  0  0
  -83.7467   30.7645    1.1361 C   0  0  0  0  0  0  0  0  0  0  0  0
  -85.0689   30.8310    0.7353 C   0  0  0  0  0  0  0  0  0  0  0  0
  -86.7633   31.9173   -0.5343 O   0  0  0  0  0  0  0  0  0  0  0  0
  -87.3913   31.6467   -1.7191 C   0  0  0  0  0  0  0  0  0  0  0  0
  -89.8084   28.7437   -2.0278 C   0  0  0  0  0  0  0  0  0  0  0  0
  -88.9580   27.6351   -2.0143 C   0  0  0  0  0  0  0  0  0  0  0  0
  -87.6150   27.8986   -1.8993 C   0  0  0  0  0  0  0  0  0  0  0  0
  -87.1250   29.1795   -1.8028 C   0  0  0  0  0  0  0  0  0  0  0  0
  -87.9895   30.2631   -1.8196 C   0  0  0  0  0  0  0  0  0  0  0  0
  -89.3273   30.0260   -1.9325 C   0  0  0  0  0  0  0  0  0  0  0  0
  -91.1602   28.4634   -2.1393 O   0  0  0  0  0  0  0  0  0  0  0  0
  -93.9326   27.7563   -6.9616 C   0  0  0  0  0  0  0  0  0  0  0  0
  -93.2068   27.9501   -5.6907 C   0  0  0  0  0  0  0  0  0  0  0  0
  -93.0818   29.2234   -5.1515 C   0  0  0  0  0  0  0  0  0  0  0  0
  -92.3884   29.3693   -3.9526 C   0  0  0  0  0  0  0  0  0  0  0  0
  -91.8334   28.2974   -3.3032 C   0  0  0  0  0  0  0  0  0  0  0  0
  -91.9735   27.0289   -3.8662 C   0  0  0  0  0  0  0  0  0  0  0  0
  -92.6515   26.8465   -5.0474 C   0  0  0  0  0  0  0  0  0  0  0  0
 43 44  1  0  0  0
 44 45  2  0  0  0
 45 46  1  0  0  0
 46 47  2  0  0  0
 47 42  1  0  0  0
 42 36  1  0  0  0
 36 37  2  0  0  0
 37 38  1  0  0  0
 38 39  2  0  0  0
 39 40  1  0  0  0
 40 35  1  0  0  0
 35 34  1  0  0  0
 34 28  1  0  0  0
 28 29  2  0  0  0
 29 30  1  0  0  0
 30 31  2  0  0  0
 31 32  1  0  0  0
 32 33  2  0  0  0
 33 27  1  0  0  0
 27 26  1  0  0  0
 26  1  1  0  0  0
  1  2  2  0  0  0
  1  3  1  0  0  0
  3  4  1  0  0  0
  4  5  1  0  0  0
  5  6  1  0  0  0
  6  7  1  0  0  0
  7  8  1  0  0  0
  8  9  1  0  0  0
  9 10  1  0  0  0
 10 11  1  0  0  0
 11 12  1  0  0  0
 12 13  2  0  0  0
 12 14  1  0  0  0
 12 16  1  0  0  0
 16 17  1  0  0  0
 17 18  1  0  0  0
 18 19  1  0  0  0
 18 22  1  0  0  0
 22 23  2  0  0  0
 22 24  1  0  0  0
 40 41  2  0  0  0
 47 48  1  0  0  0
 48 49  2  0  0  0
 49 44  1  0  0  0
 41 36  1  0  0  0
 33 28  1  0  0  0
 10  5  1  0  0  0
 14 15  1  0  0  0
 19 20  1  0  0  0
 19 21  1  0  0  0
 24 25  1  0  0  0
M  END
> <minimizedAffinity>
-8.75875

> <CNNscore>
0.4420947134

> <CNNaffinity>
6.9703660011

> <CNN_VS>
3.0815620422

> <CNNaffinity_variance>
0.1362135112

$$$$
[H]OC(=O)[C@@]([H])(N([H])[H])C([H])([H])OP(=O)(O[H])O[C@]1([H])C([H])([H])C([H])([H])C([H])([H])O[C@]1([H])C([H])([H])OC(=O)C([H])([H])C([H])([H])c1c([H])c([H])c([H])c([H])c1OC([H])([H])c1c([H])c([H])c([H])c(Oc2c([H])c([H])c(C([H])([H])[H])c([H])c2[H])c1[H]


 49 52  0  0  0  0  0  0  0  0999 V2000
  -85.2486   27.8691    2.3741 C   0  0  0  0  0  0  0  0  0  0  0  0
  -84.6341   26.7902    2.4021 O   0  0  0  0  0  0  0  0  0  0  0  0
  -86.5958   27.8330    1.9423 O   0  0  0  0  0  0  0  0  0  0  0  0
  -87.3754   26.7221    1.8720 C   0  0  0  0  0  0  0  0  0  0  0  0
  -88.4141   26.4812    2.9254 C   0  0  0  0  0  0  0  0  0  0  0  0
  -89.0465   27.6197    3.3497 O   0  0  0  0  0  0  0  0  0  0  0  0
  -90.3698   27.4938    3.6914 C   0  0  0  0  0  0  0  0  0  0  0  0
  -90.7563   26.1986    4.3319 C   0  0  0  0  0  0  0  0  0  0  0  0
  -90.1646   24.9918    3.6947 C   0  0  0  0  0  0  0  0  0  0  0  0
  -89.4119   25.4187    2.4467 C   0  0  0  0  0  0  0  0  0  0  0  0
  -90.2350   25.8349    1.4432 O   0  0  0  0  0  0  0  0  0  0  0  0
  -90.1115   25.0070    0.0010 P   0  0  0  0  0  0  0  0  0  0  0  0
  -89.9276   25.8701   -1.2030 O   0  0  0  0  0  0  0  0  0  0  0  0
  -88.7868   23.9212    0.0194 O   0  0  0  0  0  0  0  0  0  0  0  0
  -89.0799   23.0660    0.3696 H   0  0  0  0  0  0  0  0  0  0  0  0
  -91.5040   24.0339   -0.1443 O   0  0  0  0  0  0  0  0  0  0  0  0
  -91.2117   22.7716   -0.6540 C   0  0  0  0  0  0  0  0  0  0  0  0
  -91.5946   21.7807    0.4343 C   0  0  0  0  0  0  0  0  0  0  0  0
  -92.0358   22.5229    1.5813 N   0  0  0  0  0  0  0  0  0  0  0  0
  -93.0113   22.8223    1.5214 H   0  0  0  0  0  0  0  0  0  0  0  0
  -91.7287   22.1408    2.4851 H   0  0  0  0  0  0  0  0  0  0  0  0
  -90.5503   20.7934    0.7224 C   0  0  0  0  0  0  0  0  0  0  0  0
  -90.8259   19.6832    1.2268 O   0  0  0  0  0  0  0  0  0  0  0  0
  -89.2280   21.0764    0.4388 O   0  0  0  0  0  0  0  0  0  0  0  0
  -88.8190   21.1891   -0.4585 H   0  0  0  0  0  0  0  0  0  0  0  0
  -84.6687   29.1547    2.7479 C   0  0  0  0  0  0  0  0  0  0  0  0
  -85.3077   30.4042    2.3024 C   0  0  0  0  0  0  0  0  0  0  0  0
  -85.3292   31.8541    0.2299 C   0  0  0  0  0  0  0  0  0  0  0  0
  -84.6192   32.6272   -0.6479 C   0  0  0  0  0  0  0  0  0  0  0  0
  -83.2235   32.7398   -0.6005 C   0  0  0  0  0  0  0  0  0  0  0  0
  -82.5625   32.0358    0.3768 C   0  0  0  0  0  0  0  0  0  0  0  0
  -83.2493   31.2575    1.2694 C   0  0  0  0  0  0  0  0  0  0  0  0
  -84.6277   31.1566    1.2127 C   0  0  0  0  0  0  0  0  0  0  0  0
  -86.6744   31.7501    0.1537 O   0  0  0  0  0  0  0  0  0  0  0  0
  -87.5213   30.8959   -0.4979 C   0  0  0  0  0  0  0  0  0  0  0  0
  -88.7857   32.9137   -3.4465 C   0  0  0  0  0  0  0  0  0  0  0  0
  -88.6221   32.0287   -4.5153 C   0  0  0  0  0  0  0  0  0  0  0  0
  -88.1010   30.7950   -4.2106 C   0  0  0  0  0  0  0  0  0  0  0  0
  -87.7559   30.4416   -2.9276 C   0  0  0  0  0  0  0  0  0  0  0  0
  -87.9270   31.3383   -1.8843 C   0  0  0  0  0  0  0  0  0  0  0  0
  -88.4432   32.5690   -2.1626 C   0  0  0  0  0  0  0  0  0  0  0  0
  -89.3165   34.1522   -3.7672 O   0  0  0  0  0  0  0  0  0  0  0  0
  -86.3653   38.6792   -5.2627 C   0  0  0  0  0  0  0  0  0  0  0  0
  -87.1369   37.4823   -4.8736 C   0  0  0  0  0  0  0  0  0  0  0  0
  -87.0593   36.3282   -5.6416 C   0  0  0  0  0  0  0  0  0  0  0  0
  -87.8028   35.2190   -5.2463 C   0  0  0  0  0  0  0  0  0  0  0  0
  -88.5994   35.2425   -4.1312 C   0  0  0  0  0  0  0  0  0  0  0  0
  -88.6594   36.4144   -3.3770 C   0  0  0  0  0  0  0  0  0  0  0  0
  -87.9393   37.5282   -3.7361 C   0  0  0  0  0  0  0  0  0  0  0  0
 43 44  1  0  0  0
 44 45  2  0  0  0
 45 46  1  0  0  0
 46 47  2  0  0  0
 47 42  1  0  0  0
 42 36  1  0  0  0
 36 37  2  0  0  0
 37 38  1  0  0  0
 38 39  2  0  0  0
 39 40  1  0  0  0
 40 35  1  0  0  0
 35 34  1  0  0  0
 34 28  1  0  0  0
 28 29  2  0  0  0
 29 30  1  0  0  0
 30 31  2  0  0  0
 31 32  1  0  0  0
 32 33  2  0  0  0
 33 27  1  0  0  0
 27 26  1  0  0  0
 26  1  1  0  0  0
  1  2  2  0  0  0
  1  3  1  0  0  0
  3  4  1  0  0  0
  4  5  1  0  0  0
  5  6  1  0  0  0
  6  7  1  0  0  0
  7  8  1  0  0  0
  8  9  1  0  0  0
  9 10  1  0  0  0
 10 11  1  0  0  0
 11 12  1  0  0  0
 12 13  2  0  0  0
 12 14  1  0  0  0
 12 16  1  0  0  0
 16 17  1  0  0  0
 17 18  1  0  0  0
 18 19  1  0  0  0
 18 22  1  0  0  0
 22 23  2  0  0  0
 22 24  1  0  0  0
 40 41  2  0  0  0
 47 48  1  0  0  0
 48 49  2  0  0  0
 49 44  1  0  0  0
 41 36  1  0  0  0
 33 28  1  0  0  0
 10  5  1  0  0  0
 14 15  1  0  0  0
 19 20  1  0  0  0
 19 21  1  0  0  0
 24 25  1  0  0  0
M  END
> <minimizedAffinity>
-9.20083

> <CNNscore>
0.2652767003

> <CNNaffinity>
6.5567159653

> <CNN_VS>
1.7393440008

> <CNNaffinity_variance>
0.1821655482

$$$$
[H]OC(=O)[C@@]([H])(N([H])[H])C([H])([H])OP(=O)(O[H])O[C@]1([H])C([H])([H])C([H])([H])C([H])([H])O[C@]1([H])C([H])([H])OC(=O)C([H])([H])C([H])([H])c1c([H])c([H])c([H])c([H])c1OC([H])([H])c1c([H])c([H])c([H])c(Oc2c([H])c([H])c(C([H])([H])[H])c([H])c2[H])c1[H]


 49 52  0  0  0  0  0  0  0  0999 V2000
  -88.1316   28.6899   -2.8666 C   0  0  0  0  0  0  0  0  0  0  0  0
  -87.5975   29.5768   -3.5525 O   0  0  0  0  0  0  0  0  0  0  0  0
  -89.4242   28.2644   -3.2553 O   0  0  0  0  0  0  0  0  0  0  0  0
  -90.1339   27.2594   -2.6782 C   0  0  0  0  0  0  0  0  0  0  0  0
  -91.6022   27.1393   -2.9545 C   0  0  0  0  0  0  0  0  0  0  0  0
  -91.9127   27.0960   -4.2879 O   0  0  0  0  0  0  0  0  0  0  0  0
  -92.9841   26.3146   -4.6418 C   0  0  0  0  0  0  0  0  0  0  0  0
  -94.1110   26.2713   -3.6593 C   0  0  0  0  0  0  0  0  0  0  0  0
  -93.6895   26.1363   -2.2392 C   0  0  0  0  0  0  0  0  0  0  0  0
  -92.1841   25.9409   -2.1938 C   0  0  0  0  0  0  0  0  0  0  0  0
  -91.7887   24.7277   -2.6729 O   0  0  0  0  0  0  0  0  0  0  0  0
  -91.0136   23.7266   -1.5875 P   0  0  0  0  0  0  0  0  0  0  0  0
  -91.5019   22.3160   -1.5776 O   0  0  0  0  0  0  0  0  0  0  0  0
  -89.3321   23.6496   -1.9048 O   0  0  0  0  0  0  0  0  0  0  0  0
  -88.8828   24.3579   -1.4187 H   0  0  0  0  0  0  0  0  0  0  0  0
  -91.1604   24.4413   -0.0465 O   0  0  0  0  0  0  0  0  0  0  0  0
  -89.9827   24.3474    0.6902 C   0  0  0  0  0  0  0  0  0  0  0  0
  -90.2353   23.2882    1.7519 C   0  0  0  0  0  0  0  0  0  0  0  0
  -89.9822   22.0006    1.1698 N   0  0  0  0  0  0  0  0  0  0  0  0
  -88.9923   21.7453    1.1617 H   0  0  0  0  0  0  0  0  0  0  0  0
  -90.6427   21.2642    1.4503 H   0  0  0  0  0  0  0  0  0  0  0  0
  -91.5445   23.4080    2.4001 C   0  0  0  0  0  0  0  0  0  0  0  0
  -91.6511   23.7922    3.5850 O   0  0  0  0  0  0  0  0  0  0  0  0
  -92.6964   23.0942    1.7046 O   0  0  0  0  0  0  0  0  0  0  0  0
  -93.0794   23.5816    0.9296 H   0  0  0  0  0  0  0  0  0  0  0  0
  -87.5163   28.0749   -1.6952 C   0  0  0  0  0  0  0  0  0  0  0  0
  -87.4449   28.8212   -0.4280 C   0  0  0  0  0  0  0  0  0  0  0  0
  -89.8195   29.4604    0.1640 C   0  0  0  0  0  0  0  0  0  0  0  0
  -90.9120   29.2419    0.9584 C   0  0  0  0  0  0  0  0  0  0  0  0
  -90.8932   28.3591    2.0461 C   0  0  0  0  0  0  0  0  0  0  0  0
  -89.7179   27.6968    2.3061 C   0  0  0  0  0  0  0  0  0  0  0  0
  -88.6112   27.8951    1.5251 C   0  0  0  0  0  0  0  0  0  0  0  0
  -88.6438   28.7682    0.4527 C   0  0  0  0  0  0  0  0  0  0  0  0
  -89.8587   30.3289   -0.8706 O   0  0  0  0  0  0  0  0  0  0  0  0
  -89.9312   31.6922   -0.9584 C   0  0  0  0  0  0  0  0  0  0  0  0
  -86.3979   33.0459   -0.7386 C   0  0  0  0  0  0  0  0  0  0  0  0
  -86.2377   33.6838   -1.9714 C   0  0  0  0  0  0  0  0  0  0  0  0
  -87.3134   33.6406   -2.8243 C   0  0  0  0  0  0  0  0  0  0  0  0
  -88.4871   33.0065   -2.4921 C   0  0  0  0  0  0  0  0  0  0  0  0
  -88.6209   32.3798   -1.2628 C   0  0  0  0  0  0  0  0  0  0  0  0
  -87.5663   32.4099   -0.3993 C   0  0  0  0  0  0  0  0  0  0  0  0
  -85.3073   33.1012    0.1134 O   0  0  0  0  0  0  0  0  0  0  0  0
  -82.5859   28.6679    2.2062 C   0  0  0  0  0  0  0  0  0  0  0  0
  -83.2984   29.8339    1.6475 C   0  0  0  0  0  0  0  0  0  0  0  0
  -82.7906   30.4871    0.5325 C   0  0  0  0  0  0  0  0  0  0  0  0
  -83.4875   31.5849    0.0341 C   0  0  0  0  0  0  0  0  0  0  0  0
  -84.6475   32.0289    0.6136 C   0  0  0  0  0  0  0  0  0  0  0  0
  -85.1364   31.3549    1.7327 C   0  0  0  0  0  0  0  0  0  0  0  0
  -84.4761   30.2674    2.2519 C   0  0  0  0  0  0  0  0  0  0  0  0
 43 44  1  0  0  0
 44 45  2  0  0  0
 45 46  1  0  0  0
 46 47  2  0  0  0
 47 42  1  0  0  0
 42 36  1  0  0  0
 36 37  2  0  0  0
 37 38  1  0  0  0
 38 39  2  0  0  0
 39 40  1  0  0  0
 40 35  1  0  0  0
 35 34  1  0  0  0
 34 28  1  0  0  0
 28 29  2  0  0  0
 29 30  1  0  0  0
 30 31  2  0  0  0
 31 32  1  0  0  0
 32 33  2  0  0  0
 33 27  1  0  0  0
 27 26  1  0  0  0
 26  1  1  0  0  0
  1  2  2  0  0  0
  1  3  1  0  0  0
  3  4  1  0  0  0
  4  5  1  0  0  0
  5  6  1  0  0  0
  6  7  1  0  0  0
  7  8  1  0  0  0
  8  9  1  0  0  0
  9 10  1  0  0  0
 10 11  1  0  0  0
 11 12  1  0  0  0
 12 13  2  0  0  0
 12 14  1  0  0  0
 12 16  1  0  0  0
 16 17  1  0  0  0
 17 18  1  0  0  0
 18 19  1  0  0  0
 18 22  1  0  0  0
 22 23  2  0  0  0
 22 24  1  0  0  0
 40 41  2  0  0  0
 47 48  1  0  0  0
 48 49  2  0  0  0
 49 44  1  0  0  0
 41 36  1  0  0  0
 33 28  1  0  0  0
 10  5  1  0  0  0
 14 15  1  0  0  0
 19 20  1  0  0  0
 19 21  1  0  0  0
 24 25  1  0  0  0
M  END
> <minimizedAffinity>
-9.40475

> <CNNscore>
0.2307685763

> <CNNaffinity>
6.4935889244

> <CNN_VS>
1.4985163212

> <CNNaffinity_variance>
0.5827364922

$$$$
[H]OC(=O)[C@@]([H])(N([H])[H])C([H])([H])OP(=O)(O[H])O[C@]1([H])C([H])([H])C([H])([H])C([H])([H])O[C@]1([H])C([H])([H])OC(=O)C([H])([H])C([H])([H])c1c([H])c([H])c([H])c([H])c1OC([H])([H])c1c([H])c([H])c([H])c(Oc2c([H])c([H])c(C([H])([H])[H])c([H])c2[H])c1[H]


 49 52  0  0  0  0  0  0  0  0999 V2000
  -88.2175   28.0491   -2.2834 C   0  0  0  0  0  0  0  0  0  0  0  0
  -88.1777   28.8434   -3.2373 O   0  0  0  0  0  0  0  0  0  0  0  0
  -89.1525   26.9898   -2.3648 O   0  0  0  0  0  0  0  0  0  0  0  0
  -90.0914   26.6887   -1.4295 C   0  0  0  0  0  0  0  0  0  0  0  0
  -89.8926   27.1364   -0.0130 C   0  0  0  0  0  0  0  0  0  0  0  0
  -90.6362   28.2344    0.3300 O   0  0  0  0  0  0  0  0  0  0  0  0
  -91.0919   28.2853    1.6237 C   0  0  0  0  0  0  0  0  0  0  0  0
  -90.1797   27.7071    2.6584 C   0  0  0  0  0  0  0  0  0  0  0  0
  -89.5485   26.4157    2.2754 C   0  0  0  0  0  0  0  0  0  0  0  0
  -90.1300   25.9637    0.9473 C   0  0  0  0  0  0  0  0  0  0  0  0
  -91.4317   25.5708    1.0406 O   0  0  0  0  0  0  0  0  0  0  0  0
  -91.7424   23.9698    0.6925 P   0  0  0  0  0  0  0  0  0  0  0  0
  -92.8215   23.3479    1.5155 O   0  0  0  0  0  0  0  0  0  0  0  0
  -92.2108   23.7691   -0.9429 O   0  0  0  0  0  0  0  0  0  0  0  0
  -91.4203   23.6298   -1.4865 H   0  0  0  0  0  0  0  0  0  0  0  0
  -90.2728   23.1217    0.8591 O   0  0  0  0  0  0  0  0  0  0  0  0
  -90.3210   22.1846    1.8879 C   0  0  0  0  0  0  0  0  0  0  0  0
  -89.9018   20.8602    1.2689 C   0  0  0  0  0  0  0  0  0  0  0  0
  -88.8062   21.1097    0.3755 N   0  0  0  0  0  0  0  0  0  0  0  0
  -87.9012   21.1667    0.8475 H   0  0  0  0  0  0  0  0  0  0  0  0
  -88.8331   20.5703   -0.4995 H   0  0  0  0  0  0  0  0  0  0  0  0
  -91.0120   20.1171    0.6659 C   0  0  0  0  0  0  0  0  0  0  0  0
  -91.1747   18.8975    0.8868 O   0  0  0  0  0  0  0  0  0  0  0  0
  -91.9077   20.7594   -0.1673 O   0  0  0  0  0  0  0  0  0  0  0  0
  -92.5649   21.4588    0.0855 H   0  0  0  0  0  0  0  0  0  0  0  0
  -87.3739   28.1470   -1.0970 C   0  0  0  0  0  0  0  0  0  0  0  0
  -86.4152   29.2572   -0.9690 C   0  0  0  0  0  0  0  0  0  0  0  0
  -85.3220   30.7550    0.7513 C   0  0  0  0  0  0  0  0  0  0  0  0
  -84.9780   30.9527    2.0609 C   0  0  0  0  0  0  0  0  0  0  0  0
  -85.1545   29.9728    3.0465 C   0  0  0  0  0  0  0  0  0  0  0  0
  -85.6973   28.7719    2.6581 C   0  0  0  0  0  0  0  0  0  0  0  0
  -86.0528   28.5495    1.3549 C   0  0  0  0  0  0  0  0  0  0  0  0
  -85.8751   29.5264    0.3918 C   0  0  0  0  0  0  0  0  0  0  0  0
  -85.1276   31.7111   -0.1838 O   0  0  0  0  0  0  0  0  0  0  0  0
  -85.5071   33.0211   -0.2897 C   0  0  0  0  0  0  0  0  0  0  0  0
  -87.9865   34.2593   -2.8753 C   0  0  0  0  0  0  0  0  0  0  0  0
  -89.1572   33.5817   -2.5251 C   0  0  0  0  0  0  0  0  0  0  0  0
  -89.0750   32.7431   -1.4405 C   0  0  0  0  0  0  0  0  0  0  0  0
  -87.9088   32.5729   -0.7325 C   0  0  0  0  0  0  0  0  0  0  0  0
  -86.7600   33.2559   -1.1006 C   0  0  0  0  0  0  0  0  0  0  0  0
  -86.8178   34.0945   -2.1740 C   0  0  0  0  0  0  0  0  0  0  0  0
  -88.0849   35.1051   -3.9677 O   0  0  0  0  0  0  0  0  0  0  0  0
  -86.2953   40.4164   -4.1316 C   0  0  0  0  0  0  0  0  0  0  0  0
  -86.7740   39.0207   -4.0850 C   0  0  0  0  0  0  0  0  0  0  0  0
  -87.7973   38.6680   -3.2153 C   0  0  0  0  0  0  0  0  0  0  0  0
  -88.2218   37.3418   -3.1961 C   0  0  0  0  0  0  0  0  0  0  0  0
  -87.6579   36.3902   -4.0055 C   0  0  0  0  0  0  0  0  0  0  0  0
  -86.6317   36.7708   -4.8702 C   0  0  0  0  0  0  0  0  0  0  0  0
  -86.1872   38.0703   -4.9171 C   0  0  0  0  0  0  0  0  0  0  0  0
 43 44  1  0  0  0
 44 45  2  0  0  0
 45 46  1  0  0  0
 46 47  2  0  0  0
 47 42  1  0  0  0
 42 36  1  0  0  0
 36 37  2  0  0  0
 37 38  1  0  0  0
 38 39  2  0  0  0
 39 40  1  0  0  0
 40 35  1  0  0  0
 35 34  1  0  0  0
 34 28  1  0  0  0
 28 29  2  0  0  0
 29 30  1  0  0  0
 30 31  2  0  0  0
 31 32  1  0  0  0
 32 33  2  0  0  0
 33 27  1  0  0  0
 27 26  1  0  0  0
 26  1  1  0  0  0
  1  2  2  0  0  0
  1  3  1  0  0  0
  3  4  1  0  0  0
  4  5  1  0  0  0
  5  6  1  0  0  0
  6  7  1  0  0  0
  7  8  1  0  0  0
  8  9  1  0  0  0
  9 10  1  0  0  0
 10 11  1  0  0  0
 11 12  1  0  0  0
 12 13  2  0  0  0
 12 14  1  0  0  0
 12 16  1  0  0  0
 16 17  1  0  0  0
 17 18  1  0  0  0
 18 19  1  0  0  0
 18 22  1  0  0  0
 22 23  2  0  0  0
 22 24  1  0  0  0
 40 41  2  0  0  0
 47 48  1  0  0  0
 48 49  2  0  0  0
 49 44  1  0  0  0
 41 36  1  0  0  0
 33 28  1  0  0  0
 10  5  1  0  0  0
 14 15  1  0  0  0
 19 20  1  0  0  0
 19 21  1  0  0  0
 24 25  1  0  0  0
M  END
> <minimizedAffinity>
-8.89418

> <CNNscore>
0.2302450538

> <CNNaffinity>
6.3186330795

> <CNN_VS>
1.4548339844

> <CNNaffinity_variance>
0.2496455461

$$$$
[H]OC(=O)[C@@]([H])(N([H])[H])C([H])([H])OP(=O)(O[H])O[C@]1([H])C([H])([H])C([H])([H])C([H])([H])O[C@]1([H])C([H])([H])OC(=O)C([H])([H])C([H])([H])c1c([H])c([H])c([H])c([H])c1OC([H])([H])c1c([H])c([H])c([H])c(Oc2c([H])c([H])c(C([H])([H])[H])c([H])c2[H])c1[H]


 49 52  0  0  0  0  0  0  0  0999 V2000
  -85.5795   27.6895    2.0011 C   0  0  0  0  0  0  0  0  0  0  0  0
  -84.8372   26.7631    2.3659 O   0  0  0  0  0  0  0  0  0  0  0  0
  -86.6911   27.3463    1.1953 O   0  0  0  0  0  0  0  0  0  0  0  0
  -87.6034   26.3787    1.4752 C   0  0  0  0  0  0  0  0  0  0  0  0
  -88.4282   26.4803    2.7226 C   0  0  0  0  0  0  0  0  0  0  0  0
  -89.0036   27.7096    2.9071 O   0  0  0  0  0  0  0  0  0  0  0  0
  -90.2397   27.7235    3.5034 C   0  0  0  0  0  0  0  0  0  0  0  0
  -90.4699   26.6793    4.5491 C   0  0  0  0  0  0  0  0  0  0  0  0
  -89.9710   25.3243    4.1915 C   0  0  0  0  0  0  0  0  0  0  0  0
  -89.4675   25.3524    2.7591 C   0  0  0  0  0  0  0  0  0  0  0  0
  -90.4688   25.4835    1.8438 O   0  0  0  0  0  0  0  0  0  0  0  0
  -91.0446   24.0676    1.1771 P   0  0  0  0  0  0  0  0  0  0  0  0
  -90.0564   22.9497    1.1312 O   0  0  0  0  0  0  0  0  0  0  0  0
  -92.3971   23.4766    2.0464 O   0  0  0  0  0  0  0  0  0  0  0  0
  -93.2067   23.8618    1.6776 H   0  0  0  0  0  0  0  0  0  0  0  0
  -91.6255   24.4422   -0.3815 O   0  0  0  0  0  0  0  0  0  0  0  0
  -92.7199   23.6580   -0.7365 C   0  0  0  0  0  0  0  0  0  0  0  0
  -92.4677   23.2090   -2.1676 C   0  0  0  0  0  0  0  0  0  0  0  0
  -91.5075   24.1004   -2.7544 N   0  0  0  0  0  0  0  0  0  0  0  0
  -90.5401   23.8684   -2.5193 H   0  0  0  0  0  0  0  0  0  0  0  0
  -91.6936   24.3483   -3.7348 H   0  0  0  0  0  0  0  0  0  0  0  0
  -93.6929   23.0424   -2.9546 C   0  0  0  0  0  0  0  0  0  0  0  0
  -94.8223   23.1890   -2.4391 O   0  0  0  0  0  0  0  0  0  0  0  0
  -93.6196   22.7161   -4.2952 O   0  0  0  0  0  0  0  0  0  0  0  0
  -93.2708   23.2831   -5.0312 H   0  0  0  0  0  0  0  0  0  0  0  0
  -85.3713   29.0925    2.3436 C   0  0  0  0  0  0  0  0  0  0  0  0
  -85.8808   30.1479    1.4523 C   0  0  0  0  0  0  0  0  0  0  0  0
  -85.2176   32.0417   -0.0877 C   0  0  0  0  0  0  0  0  0  0  0  0
  -84.2203   32.8455   -0.5690 C   0  0  0  0  0  0  0  0  0  0  0  0
  -82.8702   32.6517   -0.2487 C   0  0  0  0  0  0  0  0  0  0  0  0
  -82.5594   31.6049    0.5852 C   0  0  0  0  0  0  0  0  0  0  0  0
  -83.5385   30.7876    1.0829 C   0  0  0  0  0  0  0  0  0  0  0  0
  -84.8680   30.9913    0.7602 C   0  0  0  0  0  0  0  0  0  0  0  0
  -86.5113   32.2403   -0.4239 O   0  0  0  0  0  0  0  0  0  0  0  0
  -87.2134   32.1231   -1.5921 C   0  0  0  0  0  0  0  0  0  0  0  0
  -90.0451   29.7670   -2.4841 C   0  0  0  0  0  0  0  0  0  0  0  0
  -90.6331   29.5119   -1.2426 C   0  0  0  0  0  0  0  0  0  0  0  0
  -90.0656   30.1373   -0.1594 C   0  0  0  0  0  0  0  0  0  0  0  0
  -88.9782   30.9698   -0.2804 C   0  0  0  0  0  0  0  0  0  0  0  0
  -88.4120   31.2061   -1.5236 C   0  0  0  0  0  0  0  0  0  0  0  0
  -88.9588   30.5964   -2.6136 C   0  0  0  0  0  0  0  0  0  0  0  0
  -90.6302   29.1339   -3.5682 O   0  0  0  0  0  0  0  0  0  0  0  0
  -95.5645   30.4869   -5.8620 C   0  0  0  0  0  0  0  0  0  0  0  0
  -94.2631   30.1391   -5.2581 C   0  0  0  0  0  0  0  0  0  0  0  0
  -93.1869   31.0073   -5.3838 C   0  0  0  0  0  0  0  0  0  0  0  0
  -91.9736   30.6457   -4.8038 C   0  0  0  0  0  0  0  0  0  0  0  0
  -91.8211   29.4666   -4.1218 C   0  0  0  0  0  0  0  0  0  0  0  0
  -92.9180   28.6122   -4.0099 C   0  0  0  0  0  0  0  0  0  0  0  0
  -94.1309   28.9361   -4.5687 C   0  0  0  0  0  0  0  0  0  0  0  0
 43 44  1  0  0  0
 44 45  2  0  0  0
 45 46  1  0  0  0
 46 47  2  0  0  0
 47 42  1  0  0  0
 42 36  1  0  0  0
 36 37  2  0  0  0
 37 38  1  0  0  0
 38 39  2  0  0  0
 39 40  1  0  0  0
 40 35  1  0  0  0
 35 34  1  0  0  0
 34 28  1  0  0  0
 28 29  2  0  0  0
 29 30  1  0  0  0
 30 31  2  0  0  0
 31 32  1  0  0  0
 32 33  2  0  0  0
 33 27  1  0  0  0
 27 26  1  0  0  0
 26  1  1  0  0  0
  1  2  2  0  0  0
  1  3  1  0  0  0
  3  4  1  0  0  0
  4  5  1  0  0  0
  5  6  1  0  0  0
  6  7  1  0  0  0
  7  8  1  0  0  0
  8  9  1  0  0  0
  9 10  1  0  0  0
 10 11  1  0  0  0
 11 12  1  0  0  0
 12 13  2  0  0  0
 12 14  1  0  0  0
 12 16  1  0  0  0
 16 17  1  0  0  0
 17 18  1  0  0  0
 18 19  1  0  0  0
 18 22  1  0  0  0
 22 23  2  0  0  0
 22 24  1  0  0  0
 40 41  2  0  0  0
 47 48  1  0  0  0
 48 49  2  0  0  0
 49 44  1  0  0  0
 41 36  1  0  0  0
 33 28  1  0  0  0
 10  5  1  0  0  0
 14 15  1  0  0  0
 19 20  1  0  0  0
 19 21  1  0  0  0
 24 25  1  0  0  0
M  END
> <minimizedAffinity>
-7.97801

> <CNNscore>
0.2267763615

> <CNNaffinity>
6.7387833595

> <CNN_VS>
1.5281968117

> <CNNaffinity_variance>
0.0499929227

$$$$
[H]OC(=O)[C@@]([H])(N([H])[H])C([H])([H])OP(=O)(O[H])O[C@]1([H])C([H])([H])C([H])([H])C([H])([H])O[C@]1([H])C([H])([H])OC(=O)C([H])([H])C([H])([H])c1c([H])c([H])c([H])c([H])c1OC([H])([H])c1c([H])c([H])c([H])c(Oc2c([H])c([H])c(C([H])([H])[H])c([H])c2[H])c1[H]


 49 52  0  0  0  0  0  0  0  0999 V2000
  -88.4149   27.6163   -0.7630 C   0  0  0  0  0  0  0  0  0  0  0  0
  -88.4758   27.2863   -1.9588 O   0  0  0  0  0  0  0  0  0  0  0  0
  -88.9250   26.6989    0.1861 O   0  0  0  0  0  0  0  0  0  0  0  0
  -88.2696   26.2561    1.2912 C   0  0  0  0  0  0  0  0  0  0  0  0
  -88.8174   26.5712    2.6503 C   0  0  0  0  0  0  0  0  0  0  0  0
  -89.5355   27.7365    2.7011 O   0  0  0  0  0  0  0  0  0  0  0  0
  -90.6028   27.7608    3.5637 C   0  0  0  0  0  0  0  0  0  0  0  0
  -90.4314   26.9888    4.8332 C   0  0  0  0  0  0  0  0  0  0  0  0
  -89.8029   25.6511    4.6644 C   0  0  0  0  0  0  0  0  0  0  0  0
  -89.6250   25.3796    3.1809 C   0  0  0  0  0  0  0  0  0  0  0  0
  -90.8047   25.1688    2.5316 O   0  0  0  0  0  0  0  0  0  0  0  0
  -91.0943   23.6074    2.0227 P   0  0  0  0  0  0  0  0  0  0  0  0
  -90.8122   22.5539    3.0420 O   0  0  0  0  0  0  0  0  0  0  0  0
  -92.7295   23.3988    1.5573 O   0  0  0  0  0  0  0  0  0  0  0  0
  -92.8240   23.6160    0.6173 H   0  0  0  0  0  0  0  0  0  0  0  0
  -90.1763   23.3584    0.6076 O   0  0  0  0  0  0  0  0  0  0  0  0
  -90.9383   22.8164   -0.4240 C   0  0  0  0  0  0  0  0  0  0  0  0
  -90.5378   23.5707   -1.6824 C   0  0  0  0  0  0  0  0  0  0  0  0
  -89.2431   24.1512   -1.4641 N   0  0  0  0  0  0  0  0  0  0  0  0
  -88.4727   23.4976   -1.6201 H   0  0  0  0  0  0  0  0  0  0  0  0
  -89.1256   25.0976   -1.8485 H   0  0  0  0  0  0  0  0  0  0  0  0
  -91.5530   24.5218   -2.1441 C   0  0  0  0  0  0  0  0  0  0  0  0
  -91.4514   25.7459   -1.9113 O   0  0  0  0  0  0  0  0  0  0  0  0
  -92.6526   24.0764   -2.8523 O   0  0  0  0  0  0  0  0  0  0  0  0
  -92.6592   23.6866   -3.7650 H   0  0  0  0  0  0  0  0  0  0  0  0
  -87.8627   28.8801   -0.2867 C   0  0  0  0  0  0  0  0  0  0  0  0
  -86.4109   29.1165   -0.3519 C   0  0  0  0  0  0  0  0  0  0  0  0
  -85.2774   30.9960    0.9053 C   0  0  0  0  0  0  0  0  0  0  0  0
  -84.8280   31.4795    2.1039 C   0  0  0  0  0  0  0  0  0  0  0  0
  -84.8369   30.7172    3.2793 C   0  0  0  0  0  0  0  0  0  0  0  0
  -85.3216   29.4341    3.2004 C   0  0  0  0  0  0  0  0  0  0  0  0
  -85.7799   28.9271    2.0142 C   0  0  0  0  0  0  0  0  0  0  0  0
  -85.7674   29.6912    0.8612 C   0  0  0  0  0  0  0  0  0  0  0  0
  -85.2442   31.7465   -0.2181 O   0  0  0  0  0  0  0  0  0  0  0  0
  -85.4906   33.0661   -0.4813 C   0  0  0  0  0  0  0  0  0  0  0  0
  -88.0119   34.3965   -2.9789 C   0  0  0  0  0  0  0  0  0  0  0  0
  -89.1800   33.7157   -2.6262 C   0  0  0  0  0  0  0  0  0  0  0  0
  -89.0820   32.8443   -1.5692 C   0  0  0  0  0  0  0  0  0  0  0  0
  -87.9034   32.6458   -0.8897 C   0  0  0  0  0  0  0  0  0  0  0  0
  -86.7576   33.3328   -1.2598 C   0  0  0  0  0  0  0  0  0  0  0  0
  -86.8308   34.2037   -2.3061 C   0  0  0  0  0  0  0  0  0  0  0  0
  -88.1261   35.2755   -4.0432 O   0  0  0  0  0  0  0  0  0  0  0  0
  -86.1524   40.5228   -4.1459 C   0  0  0  0  0  0  0  0  0  0  0  0
  -86.6792   39.1441   -4.1148 C   0  0  0  0  0  0  0  0  0  0  0  0
  -87.6574   38.7969   -3.1926 C   0  0  0  0  0  0  0  0  0  0  0  0
  -88.1293   37.4867   -3.1901 C   0  0  0  0  0  0  0  0  0  0  0  0
  -87.6545   36.5453   -4.0659 C   0  0  0  0  0  0  0  0  0  0  0  0
  -86.6720   36.9201   -4.9823 C   0  0  0  0  0  0  0  0  0  0  0  0
  -86.1829   38.2038   -5.0146 C   0  0  0  0  0  0  0  0  0  0  0  0
 43 44  1  0  0  0
 44 45  2  0  0  0
 45 46  1  0  0  0
 46 47  2  0  0  0
 47 42  1  0  0  0
 42 36  1  0  0  0
 36 37  2  0  0  0
 37 38  1  0  0  0
 38 39  2  0  0  0
 39 40  1  0  0  0
 40 35  1  0  0  0
 35 34  1  0  0  0
 34 28  1  0  0  0
 28 29  2  0  0  0
 29 30  1  0  0  0
 30 31  2  0  0  0
 31 32  1  0  0  0
 32 33  2  0  0  0
 33 27  1  0  0  0
 27 26  1  0  0  0
 26  1  1  0  0  0
  1  2  2  0  0  0
  1  3  1  0  0  0
  3  4  1  0  0  0
  4  5  1  0  0  0
  5  6  1  0  0  0
  6  7  1  0  0  0
  7  8  1  0  0  0
  8  9  1  0  0  0
  9 10  1  0  0  0
 10 11  1  0  0  0
 11 12  1  0  0  0
 12 13  2  0  0  0
 12 14  1  0  0  0
 12 16  1  0  0  0
 16 17  1  0  0  0
 17 18  1  0  0  0
 18 19  1  0  0  0
 18 22  1  0  0  0
 22 23  2  0  0  0
 22 24  1  0  0  0
 40 41  2  0  0  0
 47 48  1  0  0  0
 48 49  2  0  0  0
 49 44  1  0  0  0
 41 36  1  0  0  0
 33 28  1  0  0  0
 10  5  1  0  0  0
 14 15  1  0  0  0
 19 20  1  0  0  0
 19 21  1  0  0  0
 24 25  1  0  0  0
M  END
> <minimizedAffinity>
-8.96626

> <CNNscore>
0.2200339735

> <CNNaffinity>
6.5014085770

> <CNN_VS>
1.4305307865

> <CNNaffinity_variance>
0.0959791690

$$$$
[H]OC(=O)[C@@]([H])(N([H])[H])C([H])([H])OP(=O)(O[H])O[C@]1([H])C([H])([H])C([H])([H])C([H])([H])O[C@]1([H])C([H])([H])OC(=O)C([H])([H])C([H])([H])c1c([H])c([H])c([H])c([H])c1OC([H])([H])c1c([H])c([H])c([H])c(Oc2c([H])c([H])c(C([H])([H])[H])c([H])c2[H])c1[H]


 49 52  0  0  0  0  0  0  0  0999 V2000
  -88.1729   29.5815   -3.1897 C   0  0  0  0  0  0  0  0  0  0  0  0
  -87.7371   30.0193   -4.2671 O   0  0  0  0  0  0  0  0  0  0  0  0
  -89.4709   29.0177   -3.2003 O   0  0  0  0  0  0  0  0  0  0  0  0
  -90.6246   29.6809   -2.9246 C   0  0  0  0  0  0  0  0  0  0  0  0
  -91.9205   29.1690   -3.4772 C   0  0  0  0  0  0  0  0  0  0  0  0
  -91.9202   29.0171   -4.8385 O   0  0  0  0  0  0  0  0  0  0  0  0
  -92.6562   27.9718   -5.3379 C   0  0  0  0  0  0  0  0  0  0  0  0
  -93.9160   27.6507   -4.5984 C   0  0  0  0  0  0  0  0  0  0  0  0
  -93.7843   27.6621   -3.1168 C   0  0  0  0  0  0  0  0  0  0  0  0
  -92.3239   27.8750   -2.7586 C   0  0  0  0  0  0  0  0  0  0  0  0
  -91.5393   26.8010   -3.0563 O   0  0  0  0  0  0  0  0  0  0  0  0
  -91.6181   25.5172   -1.9949 P   0  0  0  0  0  0  0  0  0  0  0  0
  -92.1526   25.8544   -0.6425 O   0  0  0  0  0  0  0  0  0  0  0  0
  -92.6155   24.2660   -2.6063 O   0  0  0  0  0  0  0  0  0  0  0  0
  -92.0779   23.6615   -3.1405 H   0  0  0  0  0  0  0  0  0  0  0  0
  -90.0524   24.8502   -1.8910 O   0  0  0  0  0  0  0  0  0  0  0  0
  -90.0791   23.4625   -1.7803 C   0  0  0  0  0  0  0  0  0  0  0  0
  -89.9132   23.1564   -0.2998 C   0  0  0  0  0  0  0  0  0  0  0  0
  -88.9590   24.0805    0.2448 N   0  0  0  0  0  0  0  0  0  0  0  0
  -89.3633   24.9880    0.4855 H   0  0  0  0  0  0  0  0  0  0  0  0
  -88.3077   23.6734    0.9284 H   0  0  0  0  0  0  0  0  0  0  0  0
  -89.6133   21.7489   -0.0219 C   0  0  0  0  0  0  0  0  0  0  0  0
  -90.5250   20.9091    0.1402 O   0  0  0  0  0  0  0  0  0  0  0  0
  -88.3024   21.3215    0.0675 O   0  0  0  0  0  0  0  0  0  0  0  0
  -87.6356   21.2779   -0.6663 H   0  0  0  0  0  0  0  0  0  0  0  0
  -87.4383   29.6208   -1.9296 C   0  0  0  0  0  0  0  0  0  0  0  0
  -86.9623   28.3682   -1.3194 C   0  0  0  0  0  0  0  0  0  0  0  0
  -86.8901   27.9432    1.1730 C   0  0  0  0  0  0  0  0  0  0  0  0
  -87.5864   27.6921    2.3239 C   0  0  0  0  0  0  0  0  0  0  0  0
  -88.9668   27.4529    2.3371 C   0  0  0  0  0  0  0  0  0  0  0  0
  -89.6269   27.4768    1.1324 C   0  0  0  0  0  0  0  0  0  0  0  0
  -88.9545   27.7286   -0.0332 C   0  0  0  0  0  0  0  0  0  0  0  0
  -87.5916   27.9651   -0.0320 C   0  0  0  0  0  0  0  0  0  0  0  0
  -85.5556   28.1559    1.1850 O   0  0  0  0  0  0  0  0  0  0  0  0
  -84.7413   29.0154    1.8702 C   0  0  0  0  0  0  0  0  0  0  0  0
  -84.9449   32.3947    0.1661 C   0  0  0  0  0  0  0  0  0  0  0  0
  -83.6221   32.6212   -0.2227 C   0  0  0  0  0  0  0  0  0  0  0  0
  -82.7167   31.6384    0.0948 C   0  0  0  0  0  0  0  0  0  0  0  0
  -83.0827   30.4916    0.7590 C   0  0  0  0  0  0  0  0  0  0  0  0
  -84.4018   30.2909    1.1351 C   0  0  0  0  0  0  0  0  0  0  0  0
  -85.3186   31.2528    0.8301 C   0  0  0  0  0  0  0  0  0  0  0  0
  -85.8480   33.3915   -0.1646 O   0  0  0  0  0  0  0  0  0  0  0  0
  -89.6855   33.0816   -4.2410 C   0  0  0  0  0  0  0  0  0  0  0  0
  -88.6803   33.1584   -3.1626 C   0  0  0  0  0  0  0  0  0  0  0  0
  -89.0597   32.9395   -1.8451 C   0  0  0  0  0  0  0  0  0  0  0  0
  -88.0855   33.0225   -0.8534 C   0  0  0  0  0  0  0  0  0  0  0  0
  -86.7784   33.3128   -1.1462 C   0  0  0  0  0  0  0  0  0  0  0  0
  -86.4235   33.5283   -2.4779 C   0  0  0  0  0  0  0  0  0  0  0  0
  -87.3574   33.4540   -3.4831 C   0  0  0  0  0  0  0  0  0  0  0  0
 43 44  1  0  0  0
 44 45  2  0  0  0
 45 46  1  0  0  0
 46 47  2  0  0  0
 47 42  1  0  0  0
 42 36  1  0  0  0
 36 37  2  0  0  0
 37 38  1  0  0  0
 38 39  2  0  0  0
 39 40  1  0  0  0
 40 35  1  0  0  0
 35 34  1  0  0  0
 34 28  1  0  0  0
 28 29  2  0  0  0
 29 30  1  0  0  0
 30 31  2  0  0  0
 31 32  1  0  0  0
 32 33  2  0  0  0
 33 27  1  0  0  0
 27 26  1  0  0  0
 26  1  1  0  0  0
  1  2  2  0  0  0
  1  3  1  0  0  0
  3  4  1  0  0  0
  4  5  1  0  0  0
  5  6  1  0  0  0
  6  7  1  0  0  0
  7  8  1  0  0  0
  8  9  1  0  0  0
  9 10  1  0  0  0
 10 11  1  0  0  0
 11 12  1  0  0  0
 12 13  2  0  0  0
 12 14  1  0  0  0
 12 16  1  0  0  0
 16 17  1  0  0  0
 17 18  1  0  0  0
 18 19  1  0  0  0
 18 22  1  0  0  0
 22 23  2  0  0  0
 22 24  1  0  0  0
 40 41  2  0  0  0
 47 48  1  0  0  0
 48 49  2  0  0  0
 49 44  1  0  0  0
 41 36  1  0  0  0
 33 28  1  0  0  0
 10  5  1  0  0  0
 14 15  1  0  0  0
 19 20  1  0  0  0
 19 21  1  0  0  0
 24 25  1  0  0  0
M  END
> <minimizedAffinity>
-9.26954

> <CNNscore>
0.2015514076

> <CNNaffinity>
6.4622812271

> <CNN_VS>
1.3024818897

> <CNNaffinity_variance>
0.8971296549

$$$$
[H]C([H])([H])C1([H])OC([H])(C([H])([H])[N+](C([H])([H])[H])(C([H])([H])[H])C([H])([H])[H])C([H])([H])OC1([H])[H].[I-]


 12 12  0  0  0  0  0  0  0  0999 V2000
  -82.6279   31.9616    0.5684 C   0  0  0  0  0  0  0  0  0  0  0  0
  -83.3313   30.6127    0.3842 C   0  0  0  0  0  0  0  0  0  0  0  0
  -83.1405   29.8645    1.6923 C   0  0  0  0  0  0  0  0  0  0  0  0
  -84.3370   30.0672    2.4206 O   0  0  0  0  0  0  0  0  0  0  0  0
  -85.3009   29.2877    1.7507 C   0  0  0  0  0  0  0  0  0  0  0  0
  -85.4886   29.7727    0.3177 C   0  0  0  0  0  0  0  0  0  0  0  0
  -84.6475   30.8454    0.0809 O   0  0  0  0  0  0  0  0  0  0  0  0
  -86.9184   30.1780    0.1626 C   0  0  0  0  0  0  0  0  0  0  0  0
  -87.6264   29.5547   -0.8900 N   0  0  0  0  0  0  0  0  0  0  0  0
  -87.9212   30.5456   -1.9376 C   0  0  0  0  0  0  0  0  0  0  0  0
  -88.9189   29.0734   -0.3773 C   0  0  0  0  0  0  0  0  0  0  0  0
  -86.9835   28.4510   -1.5172 C   0  0  0  0  0  0  0  0  0  0  0  0
  1  2  1  0  0  0
  2  3  1  0  0  0
  3  4  1  0  0  0
  4  5  1  0  0  0
  5  6  1  0  0  0
  6  8  1  0  0  0
  8  9  1  0  0  0
  9 10  1  0  0  0
  9 11  1  0  0  0
  9 12  1  0  0  0
  6  7  1  0  0  0
  7  2  1  0  0  0
M  CHG 1   9   1
M  END
> <minimizedAffinity>
-4.41001

> <CNNscore>
0.3827667534

> <CNNaffinity>
3.9507927895

> <CNN_VS>
1.5122321844

> <CNNaffinity_variance>
0.2499475479

$$$$
[H]C([H])([H])C1([H])OC([H])(C([H])([H])[N+](C([H])([H])[H])(C([H])([H])[H])C([H])([H])[H])C([H])([H])OC1([H])[H].[I-]


 12 12  0  0  0  0  0  0  0  0999 V2000
  -84.2688   31.3485    2.1368 C   0  0  0  0  0  0  0  0  0  0  0  0
  -84.3986   30.0259    1.3736 C   0  0  0  0  0  0  0  0  0  0  0  0
  -83.5137   29.0347    2.1100 C   0  0  0  0  0  0  0  0  0  0  0  0
  -84.3853   28.3054    2.9534 O   0  0  0  0  0  0  0  0  0  0  0  0
  -85.1220   27.4804    2.0803 C   0  0  0  0  0  0  0  0  0  0  0  0
  -85.9405   28.3188    1.1050 C   0  0  0  0  0  0  0  0  0  0  0  0
  -85.7197   29.6616    1.3546 O   0  0  0  0  0  0  0  0  0  0  0  0
  -87.3794   27.9727    1.3106 C   0  0  0  0  0  0  0  0  0  0  0  0
  -88.1297   27.7288    0.1378 N   0  0  0  0  0  0  0  0  0  0  0  0
  -89.1936   28.7387    0.0168 C   0  0  0  0  0  0  0  0  0  0  0  0
  -88.7909   26.4198    0.2571 C   0  0  0  0  0  0  0  0  0  0  0  0
  -87.4049   27.7257   -1.0866 C   0  0  0  0  0  0  0  0  0  0  0  0
  1  2  1  0  0  0
  2  3  1  0  0  0
  3  4  1  0  0  0
  4  5  1  0  0  0
  5  6  1  0  0  0
  6  8  1  0  0  0
  8  9  1  0  0  0
  9 10  1  0  0  0
  9 11  1  0  0  0
  9 12  1  0  0  0
  6  7  1  0  0  0
  7  2  1  0  0  0
M  CHG 1   9   1
M  END
> <minimizedAffinity>
-4.28461

> <CNNscore>
0.3686705828

> <CNNaffinity>
3.8342068195

> <CNN_VS>
1.4135593176

> <CNNaffinity_variance>
0.3663844466

$$$$
[H]C([H])([H])C1([H])OC([H])(C([H])([H])[N+](C([H])([H])[H])(C([H])([H])[H])C([H])([H])[H])C([H])([H])OC1([H])[H].[I-]


 12 12  0  0  0  0  0  0  0  0999 V2000
  -84.7060   29.3848    1.3471 C   0  0  0  0  0  0  0  0  0  0  0  0
  -85.5325   30.6708    1.2408 C   0  0  0  0  0  0  0  0  0  0  0  0
  -84.5290   31.8109    1.2648 C   0  0  0  0  0  0  0  0  0  0  0  0
  -84.3284   32.1654   -0.0906 O   0  0  0  0  0  0  0  0  0  0  0  0
  -85.5231   32.8066   -0.4740 C   0  0  0  0  0  0  0  0  0  0  0  0
  -86.7078   31.8532   -0.3668 C   0  0  0  0  0  0  0  0  0  0  0  0
  -86.2682   30.6219    0.0855 O   0  0  0  0  0  0  0  0  0  0  0  0
  -87.3127   31.7312   -1.7276 C   0  0  0  0  0  0  0  0  0  0  0  0
  -88.6078   32.2767   -1.8791 N   0  0  0  0  0  0  0  0  0  0  0  0
  -89.2775   32.3223   -0.5691 C   0  0  0  0  0  0  0  0  0  0  0  0
  -89.4039   31.3863   -2.7383 C   0  0  0  0  0  0  0  0  0  0  0  0
  -88.6818   33.5822   -2.4403 C   0  0  0  0  0  0  0  0  0  0  0  0
  1  2  1  0  0  0
  2  3  1  0  0  0
  3  4  1  0  0  0
  4  5  1  0  0  0
  5  6  1  0  0  0
  6  8  1  0  0  0
  8  9  1  0  0  0
  9 10  1  0  0  0
  9 11  1  0  0  0
  9 12  1  0  0  0
  6  7  1  0  0  0
  7  2  1  0  0  0
M  CHG 1   9   1
M  END
> <minimizedAffinity>
-4.06812

> <CNNscore>
0.3592007756

> <CNNaffinity>
3.7987747192

> <CNN_VS>
1.3645228148

> <CNNaffinity_variance>
0.0939144269

$$$$
[H]C([H])([H])C1([H])OC([H])(C([H])([H])[N+](C([H])([H])[H])(C([H])([H])[H])C([H])([H])[H])C([H])([H])OC1([H])[H].[I-]


 12 12  0  0  0  0  0  0  0  0999 V2000
  -82.8471   29.2195    2.0276 C   0  0  0  0  0  0  0  0  0  0  0  0
  -84.3317   29.5986    2.0068 C   0  0  0  0  0  0  0  0  0  0  0  0
  -84.3705   31.1141    1.9104 C   0  0  0  0  0  0  0  0  0  0  0  0
  -84.5707   31.3997    0.5388 O   0  0  0  0  0  0  0  0  0  0  0  0
  -85.9085   31.0348    0.2882 C   0  0  0  0  0  0  0  0  0  0  0  0
  -86.1184   29.5450    0.5341 C   0  0  0  0  0  0  0  0  0  0  0  0
  -84.9263   28.9734    0.9419 O   0  0  0  0  0  0  0  0  0  0  0  0
  -86.5840   28.9376   -0.7492 C   0  0  0  0  0  0  0  0  0  0  0  0
  -87.8459   28.3022   -0.7097 N   0  0  0  0  0  0  0  0  0  0  0  0
  -87.6823   26.8676   -0.9957 C   0  0  0  0  0  0  0  0  0  0  0  0
  -88.6948   28.8588   -1.7748 C   0  0  0  0  0  0  0  0  0  0  0  0
  -88.5712   28.4128    0.5095 C   0  0  0  0  0  0  0  0  0  0  0  0
  1  2  1  0  0  0
  2  3  1  0  0  0
  3  4  1  0  0  0
  4  5  1  0  0  0
  5  6  1  0  0  0
  6  8  1  0  0  0
  8  9  1  0  0  0
  9 10  1  0  0  0
  9 11  1  0  0  0
  9 12  1  0  0  0
  6  7  1  0  0  0
  7  2  1  0  0  0
M  CHG 1   9   1
M  END
> <minimizedAffinity>
-4.58775

> <CNNscore>
0.3506646752

> <CNNaffinity>
3.8046886921

> <CNN_VS>
1.3341699839

> <CNNaffinity_variance>
0.3439652324

$$$$
[H]C([H])([H])C1([H])OC([H])(C([H])([H])[N+](C([H])([H])[H])(C([H])([H])[H])C([H])([H])[H])C([H])([H])OC1([H])[H].[I-]


 12 12  0  0  0  0  0  0  0  0999 V2000
  -91.0062   28.6000    3.4539 C   0  0  0  0  0  0  0  0  0  0  0  0
  -90.2027   27.3027    3.3140 C   0  0  0  0  0  0  0  0  0  0  0  0
  -90.2182   26.6560    4.6884 C   0  0  0  0  0  0  0  0  0  0  0  0
  -91.2495   25.6881    4.6382 O   0  0  0  0  0  0  0  0  0  0  0  0
  -90.7403   24.6641    3.8150 C   0  0  0  0  0  0  0  0  0  0  0  0
  -90.4631   25.1864    2.4099 C   0  0  0  0  0  0  0  0  0  0  0  0
  -90.7884   26.5295    2.3456 O   0  0  0  0  0  0  0  0  0  0  0  0
  -91.3016   24.3936    1.4608 C   0  0  0  0  0  0  0  0  0  0  0  0
  -90.6318   23.8763    0.3287 N   0  0  0  0  0  0  0  0  0  0  0  0
  -91.5410   23.8909   -0.8288 C   0  0  0  0  0  0  0  0  0  0  0  0
  -90.2809   22.4700    0.5822 C   0  0  0  0  0  0  0  0  0  0  0  0
  -89.4379   24.5460   -0.0597 C   0  0  0  0  0  0  0  0  0  0  0  0
  1  2  1  0  0  0
  2  3  1  0  0  0
  3  4  1  0  0  0
  4  5  1  0  0  0
  5  6  1  0  0  0
  6  8  1  0  0  0
  8  9  1  0  0  0
  9 10  1  0  0  0
  9 11  1  0  0  0
  9 12  1  0  0  0
  6  7  1  0  0  0
  7  2  1  0  0  0
M  CHG 1   9   1
M  END
> <minimizedAffinity>
-3.94592

> <CNNscore>
0.3194845915

> <CNNaffinity>
2.9300920963

> <CNN_VS>
0.9361192584

> <CNNaffinity_variance>
0.3789151013

$$$$
[H]C([H])([H])C1([H])OC([H])(C([H])([H])[N+](C([H])([H])[H])(C([H])([H])[H])C([H])([H])[H])C([H])([H])OC1([H])[H].[I-]


 12 12  0  0  0  0  0  0  0  0999 V2000
  -89.5256   31.5517   -0.5540 C   0  0  0  0  0  0  0  0  0  0  0  0
  -89.3547   30.5201   -1.6742 C   0  0  0  0  0  0  0  0  0  0  0  0
  -87.9327   30.6908   -2.1806 C   0  0  0  0  0  0  0  0  0  0  0  0
  -87.1772   29.6873   -1.5286 O   0  0  0  0  0  0  0  0  0  0  0  0
  -87.5837   28.4819   -2.1347 C   0  0  0  0  0  0  0  0  0  0  0  0
  -89.0696   28.2330   -1.9016 C   0  0  0  0  0  0  0  0  0  0  0  0
  -89.5998   29.2735   -1.1599 O   0  0  0  0  0  0  0  0  0  0  0  0
  -89.1997   26.9393   -1.1654 C   0  0  0  0  0  0  0  0  0  0  0  0
  -90.1641   26.0367   -1.6684 N   0  0  0  0  0  0  0  0  0  0  0  0
  -90.6144   26.4885   -2.9949 C   0  0  0  0  0  0  0  0  0  0  0  0
  -91.3412   26.0540   -0.7857 C   0  0  0  0  0  0  0  0  0  0  0  0
  -89.7533   24.6805   -1.7978 C   0  0  0  0  0  0  0  0  0  0  0  0
  1  2  1  0  0  0
  2  3  1  0  0  0
  3  4  1  0  0  0
  4  5  1  0  0  0
  5  6  1  0  0  0
  6  8  1  0  0  0
  8  9  1  0  0  0
  9 10  1  0  0  0
  9 11  1  0  0  0
  9 12  1  0  0  0
  6  7  1  0  0  0
  7  2  1  0  0  0
M  CHG 1   9   1
M  END
> <minimizedAffinity>
-3.30440

> <CNNscore>
0.3059743643

> <CNNaffinity>
3.1821019650

> <CNN_VS>
0.9736416340

> <CNNaffinity_variance>
0.2829807699

$$$$
[H]C([H])([H])C1([H])OC([H])(C([H])([H])[N+](C([H])([H])[H])(C([H])([H])[H])C([H])([H])[H])C([H])([H])OC1([H])[H].[I-]


 12 12  0  0  0  0  0  0  0  0999 V2000
  -85.2436   31.7748    0.3013 C   0  0  0  0  0  0  0  0  0  0  0  0
  -85.0385   30.2563    0.3232 C   0  0  0  0  0  0  0  0  0  0  0  0
  -83.7983   30.0184    1.1675 C   0  0  0  0  0  0  0  0  0  0  0  0
  -84.2780   29.6863    2.4569 O   0  0  0  0  0  0  0  0  0  0  0  0
  -84.8158   28.3914    2.3168 C   0  0  0  0  0  0  0  0  0  0  0  0
  -85.9747   28.3907    1.3265 C   0  0  0  0  0  0  0  0  0  0  0  0
  -86.1652   29.6717    0.8400 O   0  0  0  0  0  0  0  0  0  0  0  0
  -87.1898   27.9159    2.0550 C   0  0  0  0  0  0  0  0  0  0  0  0
  -88.0074   26.9967    1.3590 N   0  0  0  0  0  0  0  0  0  0  0  0
  -89.0415   27.7290    0.6099 C   0  0  0  0  0  0  0  0  0  0  0  0
  -88.7055   26.1443    2.3342 C   0  0  0  0  0  0  0  0  0  0  0  0
  -87.3474   26.1338    0.4401 C   0  0  0  0  0  0  0  0  0  0  0  0
  1  2  1  0  0  0
  2  3  1  0  0  0
  3  4  1  0  0  0
  4  5  1  0  0  0
  5  6  1  0  0  0
  6  8  1  0  0  0
  8  9  1  0  0  0
  9 10  1  0  0  0
  9 11  1  0  0  0
  9 12  1  0  0  0
  6  7  1  0  0  0
  7  2  1  0  0  0
M  CHG 1   9   1
M  END
> <minimizedAffinity>
-4.15291

> <CNNscore>
0.3007978499

> <CNNaffinity>
3.6630873680

> <CNN_VS>
1.1018488407

> <CNNaffinity_variance>
0.3373667300

$$$$
[H]C([H])([H])C1([H])OC([H])(C([H])([H])[N+](C([H])([H])[H])(C([H])([H])[H])C([H])([H])[H])C([H])([H])OC1([H])[H].[I-]


 12 12  0  0  0  0  0  0  0  0999 V2000
  -84.3229   33.4811   -1.1478 C   0  0  0  0  0  0  0  0  0  0  0  0
  -85.2182   32.8293   -0.0886 C   0  0  0  0  0  0  0  0  0  0  0  0
  -86.6252   32.8601   -0.6603 C   0  0  0  0  0  0  0  0  0  0  0  0
  -86.8341   31.5759   -1.2173 O   0  0  0  0  0  0  0  0  0  0  0  0
  -86.9655   30.7200   -0.1056 C   0  0  0  0  0  0  0  0  0  0  0  0
  -85.6879   30.7128    0.7260 C   0  0  0  0  0  0  0  0  0  0  0  0
  -84.7586   31.5603    0.1495 O   0  0  0  0  0  0  0  0  0  0  0  0
  -85.1767   29.3091    0.7547 C   0  0  0  0  0  0  0  0  0  0  0  0
  -84.6992   28.8510    2.0037 N   0  0  0  0  0  0  0  0  0  0  0  0
  -83.2398   29.0317    2.0675 C   0  0  0  0  0  0  0  0  0  0  0  0
  -84.9589   27.4070    2.1142 C   0  0  0  0  0  0  0  0  0  0  0  0
  -85.2552   29.4697    3.1581 C   0  0  0  0  0  0  0  0  0  0  0  0
  1  2  1  0  0  0
  2  3  1  0  0  0
  3  4  1  0  0  0
  4  5  1  0  0  0
  5  6  1  0  0  0
  6  8  1  0  0  0
  8  9  1  0  0  0
  9 10  1  0  0  0
  9 11  1  0  0  0
  9 12  1  0  0  0
  6  7  1  0  0  0
  7  2  1  0  0  0
M  CHG 1   9   1
M  END
> <minimizedAffinity>
-4.59358

> <CNNscore>
0.2886295319

> <CNNaffinity>
3.8995437622

> <CNN_VS>
1.1255234480

> <CNNaffinity_variance>
0.3569882512

$$$$
[H]C([H])([H])C1([H])OC([H])(C([H])([H])[N+](C([H])([H])[H])(C([H])([H])[H])C([H])([H])[H])C([H])([H])OC1([H])[H].[I-]


 12 12  0  0  0  0  0  0  0  0999 V2000
  -82.8066   31.0578    0.1721 C   0  0  0  0  0  0  0  0  0  0  0  0
  -84.1728   30.8196    0.8239 C   0  0  0  0  0  0  0  0  0  0  0  0
  -84.9420   32.1191    0.6593 C   0  0  0  0  0  0  0  0  0  0  0  0
  -85.7673   31.9279   -0.4744 O   0  0  0  0  0  0  0  0  0  0  0  0
  -86.7618   31.0263   -0.0459 C   0  0  0  0  0  0  0  0  0  0  0  0
  -86.1445   29.6944    0.3651 C   0  0  0  0  0  0  0  0  0  0  0  0
  -84.7717   29.7541    0.2037 O   0  0  0  0  0  0  0  0  0  0  0  0
  -86.7338   28.6356   -0.5091 C   0  0  0  0  0  0  0  0  0  0  0  0
  -87.3713   27.5662    0.1602 N   0  0  0  0  0  0  0  0  0  0  0  0
  -87.6754   26.4958   -0.8033 C   0  0  0  0  0  0  0  0  0  0  0  0
  -88.6567   28.0380    0.6988 C   0  0  0  0  0  0  0  0  0  0  0  0
  -86.6526   26.9771    1.2377 C   0  0  0  0  0  0  0  0  0  0  0  0
  1  2  1  0  0  0
  2  3  1  0  0  0
  3  4  1  0  0  0
  4  5  1  0  0  0
  5  6  1  0  0  0
  6  8  1  0  0  0
  8  9  1  0  0  0
  9 10  1  0  0  0
  9 11  1  0  0  0
  9 12  1  0  0  0
  6  7  1  0  0  0
  7  2  1  0  0  0
M  CHG 1   9   1
M  END
> <minimizedAffinity>
-4.34797

> <CNNscore>
0.2692562044

> <CNNaffinity>
3.7108664513

> <CNN_VS>
0.9991738200

> <CNNaffinity_variance>
0.3042460084

$$$$
[H]Sc1nnc(N([H])C(=O)N([H])N=C([H])c2c([H])c([H])c([H])c(OC([H])([H])[H])c2[H])s1


 23 24  0  0  0  0  0  0  0  0999 V2000
  -89.2712   33.3425   -1.7241 N   0  0  0  0  0  0  0  0  0  0  0  0
  -89.0561   31.9519   -1.6010 C   0  0  0  0  0  0  0  0  0  0  0  0
  -88.6394   31.2951   -2.5873 O   0  0  0  0  0  0  0  0  0  0  0  0
  -89.2982   31.2729   -0.3910 N   0  0  0  0  0  0  0  0  0  0  0  0
  -89.6186   33.8710   -0.8901 H   0  0  0  0  0  0  0  0  0  0  0  0
  -89.6409   31.7905    0.4336 H   0  0  0  0  0  0  0  0  0  0  0  0
  -89.0804   29.8652   -0.2665 C   0  0  0  0  0  0  0  0  0  0  0  0
  -88.0100   29.2076    0.1705 N   0  0  0  0  0  0  0  0  0  0  0  0
  -88.0110   27.9449    0.2053 N   0  0  0  0  0  0  0  0  0  0  0  0
  -89.0833   27.2739   -0.1954 C   0  0  0  0  0  0  0  0  0  0  0  0
  -89.2446   25.4980   -0.2089 S   0  0  0  0  0  0  0  0  0  0  0  0
  -90.1240   28.5503   -0.6379 S   0  0  0  0  0  0  0  0  0  0  0  0
  -88.7261   24.9188    0.9818 H   0  0  0  0  0  0  0  0  0  0  0  0
  -87.9674   34.7015   -3.1417 C   0  0  0  0  0  0  0  0  0  0  0  0
  -89.0548   34.0670   -2.8767 N   0  0  0  0  0  0  0  0  0  0  0  0
  -86.7004   37.1492   -5.6783 C   0  0  0  0  0  0  0  0  0  0  0  0
  -87.5268   36.8437   -6.7388 C   0  0  0  0  0  0  0  0  0  0  0  0
  -88.4759   35.8516   -6.6084 C   0  0  0  0  0  0  0  0  0  0  0  0
  -88.6271   35.1452   -5.4343 C   0  0  0  0  0  0  0  0  0  0  0  0
  -87.8072   35.4478   -4.3809 C   0  0  0  0  0  0  0  0  0  0  0  0
  -86.8622   36.4370   -4.5140 C   0  0  0  0  0  0  0  0  0  0  0  0
  -85.4724   38.7726   -7.0008 C   0  0  0  0  0  0  0  0  0  0  0  0
  -85.7434   38.1336   -5.7761 O   0  0  0  0  0  0  0  0  0  0  0  0
 22 23  1  0  0  0
 23 16  1  0  0  0
 16 17  2  0  0  0
 17 18  1  0  0  0
 18 19  2  0  0  0
 19 20  1  0  0  0
 20 14  1  0  0  0
 14 15  2  0  0  0
 15  1  1  0  0  0
  1  2  1  0  0  0
  2  3  2  0  0  0
  2  4  1  0  0  0
  4  7  1  0  0  0
  7  8  2  0  0  0
  8  9  1  0  0  0
  9 10  2  0  0  0
 10 11  1  0  0  0
 10 12  1  0  0  0
 20 21  2  0  0  0
 21 16  1  0  0  0
 12  7  1  0  0  0
  1  5  1  0  0  0
  4  6  1  0  0  0
 11 13  1  0  0  0
M  END
> <minimizedAffinity>
-5.10635

> <CNNscore>
0.3177614808

> <CNNaffinity>
4.5145788193

> <CNN_VS>
1.4345592260

> <CNNaffinity_variance>
0.2910684645

$$$$
[H]Sc1nnc(N([H])C(=O)N([H])N=C([H])c2c([H])c([H])c([H])c(OC([H])([H])[H])c2[H])s1


 23 24  0  0  0  0  0  0  0  0999 V2000
  -85.7659   32.9785   -0.5143 N   0  0  0  0  0  0  0  0  0  0  0  0
  -86.7706   33.1153   -1.4977 C   0  0  0  0  0  0  0  0  0  0  0  0
  -87.4689   32.1220   -1.8190 O   0  0  0  0  0  0  0  0  0  0  0  0
  -87.0147   34.3471   -2.1355 N   0  0  0  0  0  0  0  0  0  0  0  0
  -85.1954   33.8188   -0.2613 H   0  0  0  0  0  0  0  0  0  0  0  0
  -86.4542   35.1780   -1.8888 H   0  0  0  0  0  0  0  0  0  0  0  0
  -88.0318   34.4856   -3.1310 C   0  0  0  0  0  0  0  0  0  0  0  0
  -89.3515   34.5723   -2.9893 N   0  0  0  0  0  0  0  0  0  0  0  0
  -90.0926   34.6920   -4.0053 N   0  0  0  0  0  0  0  0  0  0  0  0
  -89.5520   34.7311   -5.2164 C   0  0  0  0  0  0  0  0  0  0  0  0
  -90.4550   34.8958   -6.7452 S   0  0  0  0  0  0  0  0  0  0  0  0
  -87.8946   34.5865   -4.8418 S   0  0  0  0  0  0  0  0  0  0  0  0
  -91.4829   35.8726   -6.6405 H   0  0  0  0  0  0  0  0  0  0  0  0
  -84.2862   31.4108    0.4391 C   0  0  0  0  0  0  0  0  0  0  0  0
  -85.4757   31.8045    0.1473 N   0  0  0  0  0  0  0  0  0  0  0  0
  -84.8497   28.0523    1.9991 C   0  0  0  0  0  0  0  0  0  0  0  0
  -83.5810   27.7926    2.4722 C   0  0  0  0  0  0  0  0  0  0  0  0
  -82.5714   28.7113    2.2753 C   0  0  0  0  0  0  0  0  0  0  0  0
  -82.7934   29.8984    1.6107 C   0  0  0  0  0  0  0  0  0  0  0  0
  -84.0526   30.1572    1.1406 C   0  0  0  0  0  0  0  0  0  0  0  0
  -85.0567   29.2396    1.3384 C   0  0  0  0  0  0  0  0  0  0  0  0
  -86.8199   26.9074    1.1623 C   0  0  0  0  0  0  0  0  0  0  0  0
  -85.8789   27.1563    2.1792 O   0  0  0  0  0  0  0  0  0  0  0  0
 22 23  1  0  0  0
 23 16  1  0  0  0
 16 17  2  0  0  0
 17 18  1  0  0  0
 18 19  2  0  0  0
 19 20  1  0  0  0
 20 14  1  0  0  0
 14 15  2  0  0  0
 15  1  1  0  0  0
  1  2  1  0  0  0
  2  3  2  0  0  0
  2  4  1  0  0  0
  4  7  1  0  0  0
  7  8  2  0  0  0
  8  9  1  0  0  0
  9 10  2  0  0  0
 10 11  1  0  0  0
 10 12  1  0  0  0
 20 21  2  0  0  0
 21 16  1  0  0  0
 12  7  1  0  0  0
  1  5  1  0  0  0
  4  6  1  0  0  0
 11 13  1  0  0  0
M  END
> <minimizedAffinity>
-7.27552

> <CNNscore>
0.2484450638

> <CNNaffinity>
5.1130094528

> <CNN_VS>
1.2703019381

> <CNNaffinity_variance>
0.0782398432

$$$$
[H]Sc1nnc(N([H])C(=O)N([H])N=C([H])c2c([H])c([H])c([H])c(OC([H])([H])[H])c2[H])s1


 23 24  0  0  0  0  0  0  0  0999 V2000
  -89.3453   32.7366   -2.6597 N   0  0  0  0  0  0  0  0  0  0  0  0
  -88.1510   32.1896   -2.1406 C   0  0  0  0  0  0  0  0  0  0  0  0
  -87.0732   32.3350   -2.7689 O   0  0  0  0  0  0  0  0  0  0  0  0
  -88.1336   31.4777   -0.9254 N   0  0  0  0  0  0  0  0  0  0  0  0
  -90.2325   32.6040   -2.1203 H   0  0  0  0  0  0  0  0  0  0  0  0
  -89.0063   31.3448   -0.3906 H   0  0  0  0  0  0  0  0  0  0  0  0
  -86.9245   30.9240   -0.3999 C   0  0  0  0  0  0  0  0  0  0  0  0
  -86.4818   29.6701   -0.4311 N   0  0  0  0  0  0  0  0  0  0  0  0
  -85.3725   29.3751    0.0964 N   0  0  0  0  0  0  0  0  0  0  0  0
  -84.6481   30.3195    0.6829 C   0  0  0  0  0  0  0  0  0  0  0  0
  -83.0679   30.0688    1.4704 S   0  0  0  0  0  0  0  0  0  0  0  0
  -85.6381   31.6879    0.4471 S   0  0  0  0  0  0  0  0  0  0  0  0
  -82.2277   29.2234    0.6949 H   0  0  0  0  0  0  0  0  0  0  0  0
  -90.4510   33.4211   -4.6257 C   0  0  0  0  0  0  0  0  0  0  0  0
  -89.4321   33.4426   -3.8405 N   0  0  0  0  0  0  0  0  0  0  0  0
  -89.6696   36.0193   -7.2082 C   0  0  0  0  0  0  0  0  0  0  0  0
  -90.5410   35.6351   -8.2052 C   0  0  0  0  0  0  0  0  0  0  0  0
  -91.3622   34.5428   -8.0184 C   0  0  0  0  0  0  0  0  0  0  0  0
  -91.3393   33.8123   -6.8497 C   0  0  0  0  0  0  0  0  0  0  0  0
  -90.4746   34.1930   -5.8593 C   0  0  0  0  0  0  0  0  0  0  0  0
  -89.6574   35.2819   -6.0484 C   0  0  0  0  0  0  0  0  0  0  0  0
  -88.9785   37.9867   -8.4509 C   0  0  0  0  0  0  0  0  0  0  0  0
  -88.8371   37.1044   -7.3632 O   0  0  0  0  0  0  0  0  0  0  0  0
 22 23  1  0  0  0
 23 16  1  0  0  0
 16 17  2  0  0  0
 17 18  1  0  0  0
 18 19  2  0  0  0
 19 20  1  0  0  0
 20 14  1  0  0  0
 14 15  2  0  0  0
 15  1  1  0  0  0
  1  2  1  0  0  0
  2  3  2  0  0  0
  2  4  1  0  0  0
  4  7  1  0  0  0
  7  8  2  0  0  0
  8  9  1  0  0  0
  9 10  2  0  0  0
 10 11  1  0  0  0
 10 12  1  0  0  0
 20 21  2  0  0  0
 21 16  1  0  0  0
 12  7  1  0  0  0
  1  5  1  0  0  0
  4  6  1  0  0  0
 11 13  1  0  0  0
M  END
> <minimizedAffinity>
-5.06723

> <CNNscore>
0.2342505604

> <CNNaffinity>
4.5203638077

> <CNN_VS>
1.0588977337

> <CNNaffinity_variance>
0.0920080841

$$$$
[H]Sc1nnc(N([H])C(=O)N([H])N=C([H])c2c([H])c([H])c([H])c(OC([H])([H])[H])c2[H])s1


 23 24  0  0  0  0  0  0  0  0999 V2000
  -87.8452   32.0622   -0.6425 N   0  0  0  0  0  0  0  0  0  0  0  0
  -87.5723   32.9662   -1.6930 C   0  0  0  0  0  0  0  0  0  0  0  0
  -86.4210   33.0129   -2.1929 O   0  0  0  0  0  0  0  0  0  0  0  0
  -88.5648   33.8263   -2.2017 N   0  0  0  0  0  0  0  0  0  0  0  0
  -88.8112   32.0393   -0.2402 H   0  0  0  0  0  0  0  0  0  0  0  0
  -89.5186   33.8068   -1.8076 H   0  0  0  0  0  0  0  0  0  0  0  0
  -88.2885   34.7414   -3.2651 C   0  0  0  0  0  0  0  0  0  0  0  0
  -88.1231   36.0606   -3.2278 N   0  0  0  0  0  0  0  0  0  0  0  0
  -87.8827   36.7007   -4.2901 N   0  0  0  0  0  0  0  0  0  0  0  0
  -87.7952   36.0541   -5.4454 C   0  0  0  0  0  0  0  0  0  0  0  0
  -87.4631   36.8071   -7.0274 S   0  0  0  0  0  0  0  0  0  0  0  0
  -88.0773   34.4481   -4.9460 S   0  0  0  0  0  0  0  0  0  0  0  0
  -86.4289   37.7786   -6.9350 H   0  0  0  0  0  0  0  0  0  0  0  0
  -85.8506   31.5638    0.5105 C   0  0  0  0  0  0  0  0  0  0  0  0
  -86.9218   31.1949   -0.0992 N   0  0  0  0  0  0  0  0  0  0  0  0
  -84.4555   28.4136    1.9803 C   0  0  0  0  0  0  0  0  0  0  0  0
  -83.1295   28.7720    2.0991 C   0  0  0  0  0  0  0  0  0  0  0  0
  -82.7171   30.0262    1.7003 C   0  0  0  0  0  0  0  0  0  0  0  0
  -83.6012   30.9465    1.1791 C   0  0  0  0  0  0  0  0  0  0  0  0
  -84.9178   30.5916    1.0608 C   0  0  0  0  0  0  0  0  0  0  0  0
  -85.3258   29.3409    1.4591 C   0  0  0  0  0  0  0  0  0  0  0  0
  -86.0957   26.6279    1.8633 C   0  0  0  0  0  0  0  0  0  0  0  0
  -84.8991   27.1700    2.3692 O   0  0  0  0  0  0  0  0  0  0  0  0
 22 23  1  0  0  0
 23 16  1  0  0  0
 16 17  2  0  0  0
 17 18  1  0  0  0
 18 19  2  0  0  0
 19 20  1  0  0  0
 20 14  1  0  0  0
 14 15  2  0  0  0
 15  1  1  0  0  0
  1  2  1  0  0  0
  2  3  2  0  0  0
  2  4  1  0  0  0
  4  7  1  0  0  0
  7  8  2  0  0  0
  8  9  1  0  0  0
  9 10  2  0  0  0
 10 11  1  0  0  0
 10 12  1  0  0  0
 20 21  2  0  0  0
 21 16  1  0  0  0
 12  7  1  0  0  0
  1  5  1  0  0  0
  4  6  1  0  0  0
 11 13  1  0  0  0
M  END
> <minimizedAffinity>
-7.30533

> <CNNscore>
0.2201270163

> <CNNaffinity>
5.0134153366

> <CNN_VS>
1.1035881042

> <CNNaffinity_variance>
0.0455984846

$$$$
[H]Sc1nnc(N([H])C(=O)N([H])N=C([H])c2c([H])c([H])c([H])c(OC([H])([H])[H])c2[H])s1


 23 24  0  0  0  0  0  0  0  0999 V2000
  -86.0578   34.2650   -2.5212 N   0  0  0  0  0  0  0  0  0  0  0  0
  -87.3928   34.3365   -2.9771 C   0  0  0  0  0  0  0  0  0  0  0  0
  -88.2537   33.5481   -2.5136 O   0  0  0  0  0  0  0  0  0  0  0  0
  -87.7909   35.2768   -3.9472 N   0  0  0  0  0  0  0  0  0  0  0  0
  -85.3561   34.9312   -2.9204 H   0  0  0  0  0  0  0  0  0  0  0  0
  -87.1020   35.9354   -4.3433 H   0  0  0  0  0  0  0  0  0  0  0  0
  -89.1423   35.3492   -4.4087 C   0  0  0  0  0  0  0  0  0  0  0  0
  -90.2175   35.8537   -3.8098 N   0  0  0  0  0  0  0  0  0  0  0  0
  -91.3398   35.8232   -4.3888 N   0  0  0  0  0  0  0  0  0  0  0  0
  -91.4451   35.2860   -5.5975 C   0  0  0  0  0  0  0  0  0  0  0  0
  -92.9502   35.1655   -6.5461 S   0  0  0  0  0  0  0  0  0  0  0  0
  -89.8333   34.8108   -5.8880 S   0  0  0  0  0  0  0  0  0  0  0  0
  -93.7041   36.3694   -6.4824 H   0  0  0  0  0  0  0  0  0  0  0  0
  -84.3780   33.2824   -1.1911 C   0  0  0  0  0  0  0  0  0  0  0  0
  -85.6024   33.3707   -1.5761 N   0  0  0  0  0  0  0  0  0  0  0  0
  -84.3361   31.1667    1.8997 C   0  0  0  0  0  0  0  0  0  0  0  0
  -83.1629   30.4713    1.6974 C   0  0  0  0  0  0  0  0  0  0  0  0
  -82.4118   30.7033    0.5642 C   0  0  0  0  0  0  0  0  0  0  0  0
  -82.8021   31.6218   -0.3866 C   0  0  0  0  0  0  0  0  0  0  0  0
  -83.9666   32.3128   -0.1868 C   0  0  0  0  0  0  0  0  0  0  0  0
  -84.7131   32.0793    0.9436 C   0  0  0  0  0  0  0  0  0  0  0  0
  -85.2176   31.9365    4.0264 C   0  0  0  0  0  0  0  0  0  0  0  0
  -85.1084   30.9586    3.0198 O   0  0  0  0  0  0  0  0  0  0  0  0
 22 23  1  0  0  0
 23 16  1  0  0  0
 16 17  2  0  0  0
 17 18  1  0  0  0
 18 19  2  0  0  0
 19 20  1  0  0  0
 20 14  1  0  0  0
 14 15  2  0  0  0
 15  1  1  0  0  0
  1  2  1  0  0  0
  2  3  2  0  0  0
  2  4  1  0  0  0
  4  7  1  0  0  0
  7  8  2  0  0  0
  8  9  1  0  0  0
  9 10  2  0  0  0
 10 11  1  0  0  0
 10 12  1  0  0  0
 20 21  2  0  0  0
 21 16  1  0  0  0
 12  7  1  0  0  0
  1  5  1  0  0  0
  4  6  1  0  0  0
 11 13  1  0  0  0
M  END
> <minimizedAffinity>
-5.91974

> <CNNscore>
0.2066805512

> <CNNaffinity>
4.7690491676

> <CNN_VS>
0.9856697321

> <CNNaffinity_variance>
0.0901912227

$$$$
[H]Sc1nnc(N([H])C(=O)N([H])N=C([H])c2c([H])c([H])c([H])c(OC([H])([H])[H])c2[H])s1


 23 24  0  0  0  0  0  0  0  0999 V2000
  -85.9940   33.9919   -2.4379 N   0  0  0  0  0  0  0  0  0  0  0  0
  -86.9467   34.3334   -3.4233 C   0  0  0  0  0  0  0  0  0  0  0  0
  -87.7980   33.4852   -3.7887 O   0  0  0  0  0  0  0  0  0  0  0  0
  -86.9699   35.6115   -4.0145 N   0  0  0  0  0  0  0  0  0  0  0  0
  -85.2935   34.7135   -2.1477 H   0  0  0  0  0  0  0  0  0  0  0  0
  -86.2807   36.3258   -3.7310 H   0  0  0  0  0  0  0  0  0  0  0  0
  -87.9344   35.9571   -5.0119 C   0  0  0  0  0  0  0  0  0  0  0  0
  -89.2610   36.0048   -4.9290 N   0  0  0  0  0  0  0  0  0  0  0  0
  -89.9485   36.3377   -5.9350 N   0  0  0  0  0  0  0  0  0  0  0  0
  -89.3445   36.6405   -7.0770 C   0  0  0  0  0  0  0  0  0  0  0  0
  -90.1669   37.1277   -8.5824 S   0  0  0  0  0  0  0  0  0  0  0  0
  -87.7074   36.4264   -6.6503 S   0  0  0  0  0  0  0  0  0  0  0  0
  -91.2153   38.0537   -8.3271 H   0  0  0  0  0  0  0  0  0  0  0  0
  -86.2058   32.5505   -0.5849 C   0  0  0  0  0  0  0  0  0  0  0  0
  -85.9160   32.7620   -1.8204 N   0  0  0  0  0  0  0  0  0  0  0  0
  -84.8621   29.5670    1.2383 C   0  0  0  0  0  0  0  0  0  0  0  0
  -85.9293   28.7044    1.1045 C   0  0  0  0  0  0  0  0  0  0  0  0
  -87.0603   29.1087    0.4266 C   0  0  0  0  0  0  0  0  0  0  0  0
  -87.1594   30.3661   -0.1296 C   0  0  0  0  0  0  0  0  0  0  0  0
  -86.1004   31.2232    0.0027 C   0  0  0  0  0  0  0  0  0  0  0  0
  -84.9746   30.8174    0.6788 C   0  0  0  0  0  0  0  0  0  0  0  0
  -83.6559   27.9901    2.6350 C   0  0  0  0  0  0  0  0  0  0  0  0
  -83.7192   29.1942    1.9087 O   0  0  0  0  0  0  0  0  0  0  0  0
 22 23  1  0  0  0
 23 16  1  0  0  0
 16 17  2  0  0  0
 17 18  1  0  0  0
 18 19  2  0  0  0
 19 20  1  0  0  0
 20 14  1  0  0  0
 14 15  2  0  0  0
 15  1  1  0  0  0
  1  2  1  0  0  0
  2  3  2  0  0  0
  2  4  1  0  0  0
  4  7  1  0  0  0
  7  8  2  0  0  0
  8  9  1  0  0  0
  9 10  2  0  0  0
 10 11  1  0  0  0
 10 12  1  0  0  0
 20 21  2  0  0  0
 21 16  1  0  0  0
 12  7  1  0  0  0
  1  5  1  0  0  0
  4  6  1  0  0  0
 11 13  1  0  0  0
M  END
> <minimizedAffinity>
-6.00092

> <CNNscore>
0.1953396052

> <CNNaffinity>
5.0379304886

> <CNN_VS>
0.9841073751

> <CNNaffinity_variance>
0.0854236931

$$$$
[H]Sc1nnc(N([H])C(=O)N([H])N=C([H])c2c([H])c([H])c([H])c(OC([H])([H])[H])c2[H])s1


 23 24  0  0  0  0  0  0  0  0999 V2000
  -89.6500   31.7695   -0.7102 N   0  0  0  0  0  0  0  0  0  0  0  0
  -88.9754   32.4801   -1.7276 C   0  0  0  0  0  0  0  0  0  0  0  0
  -87.9373   31.9966   -2.2435 O   0  0  0  0  0  0  0  0  0  0  0  0
  -89.4382   33.7291   -2.1854 N   0  0  0  0  0  0  0  0  0  0  0  0
  -90.5132   32.1903   -0.2938 H   0  0  0  0  0  0  0  0  0  0  0  0
  -90.2890   34.1474   -1.7773 H   0  0  0  0  0  0  0  0  0  0  0  0
  -88.7553   34.4483   -3.2154 C   0  0  0  0  0  0  0  0  0  0  0  0
  -87.5054   34.9022   -3.2477 N   0  0  0  0  0  0  0  0  0  0  0  0
  -87.0816   35.5236   -4.2626 N   0  0  0  0  0  0  0  0  0  0  0  0
  -87.8863   35.7235   -5.2984 C   0  0  0  0  0  0  0  0  0  0  0  0
  -87.4438   36.5779   -6.7998 S   0  0  0  0  0  0  0  0  0  0  0  0
  -89.3157   34.9686   -4.7553 S   0  0  0  0  0  0  0  0  0  0  0  0
  -86.1519   36.1961   -7.2550 H   0  0  0  0  0  0  0  0  0  0  0  0
  -90.0582   29.6029    0.1236 C   0  0  0  0  0  0  0  0  0  0  0  0
  -89.2516   30.5455   -0.2170 N   0  0  0  0  0  0  0  0  0  0  0  0
  -89.2900   26.7679    2.4481 C   0  0  0  0  0  0  0  0  0  0  0  0
  -88.6265   25.9231    1.5837 C   0  0  0  0  0  0  0  0  0  0  0  0
  -88.4429   26.2909    0.2672 C   0  0  0  0  0  0  0  0  0  0  0  0
  -88.9083   27.4937   -0.2193 C   0  0  0  0  0  0  0  0  0  0  0  0
  -89.5671   28.3331    0.6380 C   0  0  0  0  0  0  0  0  0  0  0  0
  -89.7486   27.9637    1.9495 C   0  0  0  0  0  0  0  0  0  0  0  0
  -90.7826   26.3686    4.3203 C   0  0  0  0  0  0  0  0  0  0  0  0
  -89.4895   26.4305    3.7675 O   0  0  0  0  0  0  0  0  0  0  0  0
 22 23  1  0  0  0
 23 16  1  0  0  0
 16 17  2  0  0  0
 17 18  1  0  0  0
 18 19  2  0  0  0
 19 20  1  0  0  0
 20 14  1  0  0  0
 14 15  2  0  0  0
 15  1  1  0  0  0
  1  2  1  0  0  0
  2  3  2  0  0  0
  2  4  1  0  0  0
  4  7  1  0  0  0
  7  8  2  0  0  0
  8  9  1  0  0  0
  9 10  2  0  0  0
 10 11  1  0  0  0
 10 12  1  0  0  0
 20 21  2  0  0  0
 21 16  1  0  0  0
 12  7  1  0  0  0
  1  5  1  0  0  0
  4  6  1  0  0  0
 11 13  1  0  0  0
M  END
> <minimizedAffinity>
-5.37347

> <CNNscore>
0.1751631796

> <CNNaffinity>
4.4922313690

> <CNN_VS>
0.7868735194

> <CNNaffinity_variance>
0.1663925499

$$$$
[H]Sc1nnc(N([H])C(=O)N([H])N=C([H])c2c([H])c([H])c([H])c(OC([H])([H])[H])c2[H])s1


 23 24  0  0  0  0  0  0  0  0999 V2000
  -88.7086   32.2078   -2.7933 N   0  0  0  0  0  0  0  0  0  0  0  0
  -88.0352   31.6490   -1.6845 C   0  0  0  0  0  0  0  0  0  0  0  0
  -87.7208   32.3795   -0.7122 O   0  0  0  0  0  0  0  0  0  0  0  0
  -87.7024   30.2813   -1.6370 N   0  0  0  0  0  0  0  0  0  0  0  0
  -88.9614   31.5816   -3.5930 H   0  0  0  0  0  0  0  0  0  0  0  0
  -87.9500   29.6605   -2.4236 H   0  0  0  0  0  0  0  0  0  0  0  0
  -87.0208   29.7157   -0.5145 C   0  0  0  0  0  0  0  0  0  0  0  0
  -87.4925   28.9553    0.4696 N   0  0  0  0  0  0  0  0  0  0  0  0
  -86.7210   28.5486    1.3834 N   0  0  0  0  0  0  0  0  0  0  0  0
  -85.4368   28.8815    1.3604 C   0  0  0  0  0  0  0  0  0  0  0  0
  -84.2213   28.3914    2.5696 S   0  0  0  0  0  0  0  0  0  0  0  0
  -85.3670   29.8262   -0.0577 S   0  0  0  0  0  0  0  0  0  0  0  0
  -84.3615   27.0213    2.9235 H   0  0  0  0  0  0  0  0  0  0  0  0
  -88.4165   34.4041   -3.5980 C   0  0  0  0  0  0  0  0  0  0  0  0
  -89.0632   33.5354   -2.9035 N   0  0  0  0  0  0  0  0  0  0  0  0
  -90.5608   37.4393   -4.0673 C   0  0  0  0  0  0  0  0  0  0  0  0
  -89.6381   38.4278   -3.7980 C   0  0  0  0  0  0  0  0  0  0  0  0
  -88.3420   38.0888   -3.4704 C   0  0  0  0  0  0  0  0  0  0  0  0
  -87.9335   36.7740   -3.4026 C   0  0  0  0  0  0  0  0  0  0  0  0
  -88.8487   35.7920   -3.6698 C   0  0  0  0  0  0  0  0  0  0  0  0
  -90.1397   36.1329   -3.9960 C   0  0  0  0  0  0  0  0  0  0  0  0
  -92.7176   38.3880   -3.4836 C   0  0  0  0  0  0  0  0  0  0  0  0
  -91.8618   37.7443   -4.3972 O   0  0  0  0  0  0  0  0  0  0  0  0
 22 23  1  0  0  0
 23 16  1  0  0  0
 16 17  2  0  0  0
 17 18  1  0  0  0
 18 19  2  0  0  0
 19 20  1  0  0  0
 20 14  1  0  0  0
 14 15  2  0  0  0
 15  1  1  0  0  0
  1  2  1  0  0  0
  2  3  2  0  0  0
  2  4  1  0  0  0
  4  7  1  0  0  0
  7  8  2  0  0  0
  8  9  1  0  0  0
  9 10  2  0  0  0
 10 11  1  0  0  0
 10 12  1  0  0  0
 20 21  2  0  0  0
 21 16  1  0  0  0
 12  7  1  0  0  0
  1  5  1  0  0  0
  4  6  1  0  0  0
 11 13  1  0  0  0
M  END
> <minimizedAffinity>
-5.08446

> <CNNscore>
0.1751302928

> <CNNaffinity>
4.8785967827

> <CNN_VS>
0.8543900847

> <CNNaffinity_variance>
0.1935366243

$$$$
[H]Sc1nnc(N([H])C(=O)N([H])N=C([H])c2c([H])c([H])c([H])c(OC([H])([H])[H])c2[H])s1


 23 24  0  0  0  0  0  0  0  0999 V2000
  -90.0423   29.1199   -2.3716 N   0  0  0  0  0  0  0  0  0  0  0  0
  -90.5323   27.8205   -2.6299 C   0  0  0  0  0  0  0  0  0  0  0  0
  -89.7981   26.8233   -2.4196 O   0  0  0  0  0  0  0  0  0  0  0  0
  -91.8348   27.6083   -3.1222 N   0  0  0  0  0  0  0  0  0  0  0  0
  -90.6705   29.9370   -2.5536 H   0  0  0  0  0  0  0  0  0  0  0  0
  -92.4572   28.4116   -3.3030 H   0  0  0  0  0  0  0  0  0  0  0  0
  -92.3308   26.2930   -3.3836 C   0  0  0  0  0  0  0  0  0  0  0  0
  -92.9983   25.8318   -4.4376 N   0  0  0  0  0  0  0  0  0  0  0  0
  -93.3550   24.6208   -4.4832 N   0  0  0  0  0  0  0  0  0  0  0  0
  -93.0623   23.8077   -3.4764 C   0  0  0  0  0  0  0  0  0  0  0  0
  -93.4919   22.0793   -3.3867 S   0  0  0  0  0  0  0  0  0  0  0  0
  -92.2331   24.8669   -2.4282 S   0  0  0  0  0  0  0  0  0  0  0  0
  -93.2620   21.4205   -4.6257 H   0  0  0  0  0  0  0  0  0  0  0  0
  -88.5145   29.6582   -0.6592 C   0  0  0  0  0  0  0  0  0  0  0  0
  -88.7806   29.3971   -1.8905 N   0  0  0  0  0  0  0  0  0  0  0  0
  -85.3395   31.4881    0.1161 C   0  0  0  0  0  0  0  0  0  0  0  0
  -84.5823   30.4510    0.6180 C   0  0  0  0  0  0  0  0  0  0  0  0
  -85.1173   29.1821    0.6941 C   0  0  0  0  0  0  0  0  0  0  0  0
  -86.4038   28.9136    0.2782 C   0  0  0  0  0  0  0  0  0  0  0  0
  -87.1563   29.9425   -0.2203 C   0  0  0  0  0  0  0  0  0  0  0  0
  -86.6203   31.2061   -0.2948 C   0  0  0  0  0  0  0  0  0  0  0  0
  -83.5602   33.0136   -0.5161 C   0  0  0  0  0  0  0  0  0  0  0  0
  -84.8350   32.7657    0.0269 O   0  0  0  0  0  0  0  0  0  0  0  0
 22 23  1  0  0  0
 23 16  1  0  0  0
 16 17  2  0  0  0
 17 18  1  0  0  0
 18 19  2  0  0  0
 19 20  1  0  0  0
 20 14  1  0  0  0
 14 15  2  0  0  0
 15  1  1  0  0  0
  1  2  1  0  0  0
  2  3  2  0  0  0
  2  4  1  0  0  0
  4  7  1  0  0  0
  7  8  2  0  0  0
  8  9  1  0  0  0
  9 10  2  0  0  0
 10 11  1  0  0  0
 10 12  1  0  0  0
 20 21  2  0  0  0
 21 16  1  0  0  0
 12  7  1  0  0  0
  1  5  1  0  0  0
  4  6  1  0  0  0
 11 13  1  0  0  0
M  END
> <minimizedAffinity>
-5.56259

> <CNNscore>
0.1595705003

> <CNNaffinity>
4.5547542572

> <CNN_VS>
0.7268044353

> <CNNaffinity_variance>
0.3556724787

$$$$
[H]c1c([H])c(-c2c([H])c(SC([H])([H])[H])n([H])c2-c2c([H])c([H])c(S(=O)(=O)C([H])([H])[H])c([H])c2[H])c([H])c([H])c1F


 25 27  0  0  0  0  0  0  0  0999 V2000
  -87.2419   35.2965   -4.5535 C   0  0  0  0  0  0  0  0  0  0  0  0
  -88.1445   34.2320   -4.6959 C   0  0  0  0  0  0  0  0  0  0  0  0
  -87.9111   33.3291   -3.6884 C   0  0  0  0  0  0  0  0  0  0  0  0
  -86.8809   33.8341   -2.9409 C   0  0  0  0  0  0  0  0  0  0  0  0
  -86.4935   35.0143   -3.4756 N   0  0  0  0  0  0  0  0  0  0  0  0
  -85.7364   35.6336   -3.1300 H   0  0  0  0  0  0  0  0  0  0  0  0
  -88.6185   32.0823   -3.4589 C   0  0  0  0  0  0  0  0  0  0  0  0
  -89.9240   32.0866   -3.0122 C   0  0  0  0  0  0  0  0  0  0  0  0
  -90.6194   30.9459   -2.7828 C   0  0  0  0  0  0  0  0  0  0  0  0
  -90.0279   29.7260   -2.9946 C   0  0  0  0  0  0  0  0  0  0  0  0
  -90.7573   28.6239   -2.7526 F   0  0  0  0  0  0  0  0  0  0  0  0
  -88.7156   29.6894   -3.4439 C   0  0  0  0  0  0  0  0  0  0  0  0
  -88.0231   30.8518   -3.6721 C   0  0  0  0  0  0  0  0  0  0  0  0
  -86.3157   33.1837   -1.7748 C   0  0  0  0  0  0  0  0  0  0  0  0
  -87.1567   32.5000   -0.8902 C   0  0  0  0  0  0  0  0  0  0  0  0
  -86.5474   31.9039    0.1927 C   0  0  0  0  0  0  0  0  0  0  0  0
  -85.1973   31.9477    0.4371 C   0  0  0  0  0  0  0  0  0  0  0  0
  -84.3765   32.6251   -0.4417 C   0  0  0  0  0  0  0  0  0  0  0  0
  -84.9477   33.2251   -1.5219 C   0  0  0  0  0  0  0  0  0  0  0  0
  -84.4597   31.1769    1.8162 S   0  0  0  0  0  0  0  0  0  0  0  0
  -82.8075   30.6812    1.3662 C   0  0  0  0  0  0  0  0  0  0  0  0
  -85.2453   29.9263    2.1538 O   0  0  0  0  0  0  0  0  0  0  0  0
  -84.4920   32.0545    3.0159 O   0  0  0  0  0  0  0  0  0  0  0  0
  -88.1282   36.7079   -7.0310 C   0  0  0  0  0  0  0  0  0  0  0  0
  -87.0742   36.7465   -5.5657 S   0  0  0  0  0  0  0  0  0  0  0  0
 24 25  1  0  0  0
 25  1  1  0  0  0
  1  2  2  0  0  0
  2  3  1  0  0  0
  3  7  1  0  0  0
  7  8  2  0  0  0
  8  9  1  0  0  0
  9 10  2  0  0  0
 10 11  1  0  0  0
 10 12  1  0  0  0
 12 13  2  0  0  0
  3  4  2  0  0  0
  4 14  1  0  0  0
 14 15  2  0  0  0
 15 16  1  0  0  0
 16 17  2  0  0  0
 17 20  1  0  0  0
 20 21  1  0  0  0
 20 22  2  0  0  0
 20 23  2  0  0  0
 17 18  1  0  0  0
 18 19  2  0  0  0
  4  5  1  0  0  0
  5  1  1  0  0  0
 13  7  1  0  0  0
 19 14  1  0  0  0
  5  6  1  0  0  0
M  END
> <minimizedAffinity>
-7.21827

> <CNNscore>
0.5828673840

> <CNNaffinity>
6.0624403954

> <CNN_VS>
3.5335986614

> <CNNaffinity_variance>
0.1397289187

$$$$
[H]c1c([H])c(-c2c([H])c(SC([H])([H])[H])n([H])c2-c2c([H])c([H])c(S(=O)(=O)C([H])([H])[H])c([H])c2[H])c([H])c([H])c1F


 25 27  0  0  0  0  0  0  0  0999 V2000
  -89.5394   24.5610   -0.5547 C   0  0  0  0  0  0  0  0  0  0  0  0
  -90.0159   24.6507    0.7618 C   0  0  0  0  0  0  0  0  0  0  0  0
  -89.3363   25.6582    1.4003 C   0  0  0  0  0  0  0  0  0  0  0  0
  -88.4570   26.1771    0.4876 C   0  0  0  0  0  0  0  0  0  0  0  0
  -88.5941   25.5059   -0.6784 N   0  0  0  0  0  0  0  0  0  0  0  0
  -88.0651   25.6707   -1.5554 H   0  0  0  0  0  0  0  0  0  0  0  0
  -89.5147   26.0907    2.7746 C   0  0  0  0  0  0  0  0  0  0  0  0
  -89.9952   27.3528    3.0577 C   0  0  0  0  0  0  0  0  0  0  0  0
  -90.1740   27.7968    4.3259 C   0  0  0  0  0  0  0  0  0  0  0  0
  -89.8742   26.9817    5.3882 C   0  0  0  0  0  0  0  0  0  0  0  0
  -90.0676   27.4667    6.6262 F   0  0  0  0  0  0  0  0  0  0  0  0
  -89.3890   25.7065    5.1351 C   0  0  0  0  0  0  0  0  0  0  0  0
  -89.2128   25.2697    3.8464 C   0  0  0  0  0  0  0  0  0  0  0  0
  -87.5378   27.2652    0.7585 C   0  0  0  0  0  0  0  0  0  0  0  0
  -87.7034   28.4886    0.1004 C   0  0  0  0  0  0  0  0  0  0  0  0
  -86.7942   29.4764    0.4118 C   0  0  0  0  0  0  0  0  0  0  0  0
  -85.7663   29.3219    1.3085 C   0  0  0  0  0  0  0  0  0  0  0  0
  -85.6117   28.1108    1.9520 C   0  0  0  0  0  0  0  0  0  0  0  0
  -86.4939   27.1141    1.6663 C   0  0  0  0  0  0  0  0  0  0  0  0
  -84.6366   30.5965    1.6819 S   0  0  0  0  0  0  0  0  0  0  0  0
  -82.9908   29.9118    1.6645 C   0  0  0  0  0  0  0  0  0  0  0  0
  -84.9163   31.1009    3.0828 O   0  0  0  0  0  0  0  0  0  0  0  0
  -84.7905   31.7519    0.7590 O   0  0  0  0  0  0  0  0  0  0  0  0
  -91.8363   23.2683   -1.9576 C   0  0  0  0  0  0  0  0  0  0  0  0
  -90.0432   23.4420   -1.8388 S   0  0  0  0  0  0  0  0  0  0  0  0
 24 25  1  0  0  0
 25  1  1  0  0  0
  1  2  2  0  0  0
  2  3  1  0  0  0
  3  7  1  0  0  0
  7  8  2  0  0  0
  8  9  1  0  0  0
  9 10  2  0  0  0
 10 11  1  0  0  0
 10 12  1  0  0  0
 12 13  2  0  0  0
  3  4  2  0  0  0
  4 14  1  0  0  0
 14 15  2  0  0  0
 15 16  1  0  0  0
 16 17  2  0  0  0
 17 20  1  0  0  0
 20 21  1  0  0  0
 20 22  2  0  0  0
 20 23  2  0  0  0
 17 18  1  0  0  0
 18 19  2  0  0  0
  4  5  1  0  0  0
  5  1  1  0  0  0
 13  7  1  0  0  0
 19 14  1  0  0  0
  5  6  1  0  0  0
M  END
> <minimizedAffinity>
-7.92480

> <CNNscore>
0.3480343819

> <CNNaffinity>
5.8823575974

> <CNN_VS>
2.0472626686

> <CNNaffinity_variance>
0.2926253378

$$$$
[H]c1c([H])c(-c2c([H])c(SC([H])([H])[H])n([H])c2-c2c([H])c([H])c(S(=O)(=O)C([H])([H])[H])c([H])c2[H])c([H])c([H])c1F


 25 27  0  0  0  0  0  0  0  0999 V2000
  -89.7500   24.5990   -0.5967 C   0  0  0  0  0  0  0  0  0  0  0  0
  -90.2544   24.7996    0.6969 C   0  0  0  0  0  0  0  0  0  0  0  0
  -89.4440   25.7003    1.3425 C   0  0  0  0  0  0  0  0  0  0  0  0
  -88.4584   26.0453    0.4566 C   0  0  0  0  0  0  0  0  0  0  0  0
  -88.6594   25.3746   -0.7004 N   0  0  0  0  0  0  0  0  0  0  0  0
  -88.0781   25.4281   -1.5579 H   0  0  0  0  0  0  0  0  0  0  0  0
  -89.6008   26.1922    2.6993 C   0  0  0  0  0  0  0  0  0  0  0  0
  -89.3945   25.3571    3.7782 C   0  0  0  0  0  0  0  0  0  0  0  0
  -89.5329   25.7751    5.0602 C   0  0  0  0  0  0  0  0  0  0  0  0
  -89.8908   27.0730    5.3250 C   0  0  0  0  0  0  0  0  0  0  0  0
  -90.0160   27.4400    6.6114 F   0  0  0  0  0  0  0  0  0  0  0  0
  -90.1051   27.9369    4.2605 C   0  0  0  0  0  0  0  0  0  0  0  0
  -89.9616   27.5006    2.9675 C   0  0  0  0  0  0  0  0  0  0  0  0
  -87.3849   26.9768    0.7432 C   0  0  0  0  0  0  0  0  0  0  0  0
  -86.4331   26.6548    1.7167 C   0  0  0  0  0  0  0  0  0  0  0  0
  -85.4409   27.5870    1.9311 C   0  0  0  0  0  0  0  0  0  0  0  0
  -85.3451   28.7787    1.2565 C   0  0  0  0  0  0  0  0  0  0  0  0
  -86.2894   29.0867    0.2983 C   0  0  0  0  0  0  0  0  0  0  0  0
  -87.2830   28.1865    0.0625 C   0  0  0  0  0  0  0  0  0  0  0  0
  -84.0719   29.9331    1.5508 S   0  0  0  0  0  0  0  0  0  0  0  0
  -84.7174   31.2287    2.5912 C   0  0  0  0  0  0  0  0  0  0  0  0
  -83.6635   30.5554    0.2314 O   0  0  0  0  0  0  0  0  0  0  0  0
  -82.8641   29.2817    2.1231 O   0  0  0  0  0  0  0  0  0  0  0  0
  -91.9981   24.0653   -2.4880 C   0  0  0  0  0  0  0  0  0  0  0  0
  -90.3812   23.5428   -1.8778 S   0  0  0  0  0  0  0  0  0  0  0  0
 24 25  1  0  0  0
 25  1  1  0  0  0
  1  2  2  0  0  0
  2  3  1  0  0  0
  3  7  1  0  0  0
  7  8  2  0  0  0
  8  9  1  0  0  0
  9 10  2  0  0  0
 10 11  1  0  0  0
 10 12  1  0  0  0
 12 13  2  0  0  0
  3  4  2  0  0  0
  4 14  1  0  0  0
 14 15  2  0  0  0
 15 16  1  0  0  0
 16 17  2  0  0  0
 17 20  1  0  0  0
 20 21  1  0  0  0
 20 22  2  0  0  0
 20 23  2  0  0  0
 17 18  1  0  0  0
 18 19  2  0  0  0
  4  5  1  0  0  0
  5  1  1  0  0  0
 13  7  1  0  0  0
 19 14  1  0  0  0
  5  6  1  0  0  0
M  END
> <minimizedAffinity>
-8.30195

> <CNNscore>
0.3414475918

> <CNNaffinity>
5.7965974808

> <CNN_VS>
1.9792342186

> <CNNaffinity_variance>
0.3145279288

$$$$
[H]c1c([H])c(-c2c([H])c(SC([H])([H])[H])n([H])c2-c2c([H])c([H])c(S(=O)(=O)C([H])([H])[H])c([H])c2[H])c([H])c([H])c1F


 25 27  0  0  0  0  0  0  0  0999 V2000
  -89.4099   33.5673   -4.2784 C   0  0  0  0  0  0  0  0  0  0  0  0
  -90.1506   32.4384   -3.8972 C   0  0  0  0  0  0  0  0  0  0  0  0
  -89.4858   31.8102   -2.8735 C   0  0  0  0  0  0  0  0  0  0  0  0
  -88.3550   32.5440   -2.6323 C   0  0  0  0  0  0  0  0  0  0  0  0
  -88.3277   33.5935   -3.4848 N   0  0  0  0  0  0  0  0  0  0  0  0
  -87.5962   34.3267   -3.5433 H   0  0  0  0  0  0  0  0  0  0  0  0
  -89.9001   30.6036   -2.1807 C   0  0  0  0  0  0  0  0  0  0  0  0
  -89.6973   29.3622   -2.7480 C   0  0  0  0  0  0  0  0  0  0  0  0
  -90.0713   28.2117   -2.1366 C   0  0  0  0  0  0  0  0  0  0  0  0
  -90.6767   28.2529   -0.9059 C   0  0  0  0  0  0  0  0  0  0  0  0
  -91.0297   27.0864   -0.3403 F   0  0  0  0  0  0  0  0  0  0  0  0
  -90.8941   29.4869   -0.3097 C   0  0  0  0  0  0  0  0  0  0  0  0
  -90.5106   30.6438   -0.9398 C   0  0  0  0  0  0  0  0  0  0  0  0
  -87.3647   32.2204   -1.6239 C   0  0  0  0  0  0  0  0  0  0  0  0
  -86.6411   33.2494   -1.0119 C   0  0  0  0  0  0  0  0  0  0  0  0
  -85.7206   32.8653   -0.0607 C   0  0  0  0  0  0  0  0  0  0  0  0
  -85.4873   31.5623    0.3030 C   0  0  0  0  0  0  0  0  0  0  0  0
  -86.2064   30.5548   -0.3073 C   0  0  0  0  0  0  0  0  0  0  0  0
  -87.1238   30.9012   -1.2514 C   0  0  0  0  0  0  0  0  0  0  0  0
  -84.3171   31.1132    1.5152 S   0  0  0  0  0  0  0  0  0  0  0  0
  -82.7130   31.6831    0.9863 C   0  0  0  0  0  0  0  0  0  0  0  0
  -84.2671   29.6020    1.6083 O   0  0  0  0  0  0  0  0  0  0  0  0
  -84.6969   31.6248    2.8585 O   0  0  0  0  0  0  0  0  0  0  0  0
  -90.9809   34.1477   -6.7504 C   0  0  0  0  0  0  0  0  0  0  0  0
  -89.7775   34.7535   -5.5484 S   0  0  0  0  0  0  0  0  0  0  0  0
 24 25  1  0  0  0
 25  1  1  0  0  0
  1  2  2  0  0  0
  2  3  1  0  0  0
  3  7  1  0  0  0
  7  8  2  0  0  0
  8  9  1  0  0  0
  9 10  2  0  0  0
 10 11  1  0  0  0
 10 12  1  0  0  0
 12 13  2  0  0  0
  3  4  2  0  0  0
  4 14  1  0  0  0
 14 15  2  0  0  0
 15 16  1  0  0  0
 16 17  2  0  0  0
 17 20  1  0  0  0
 20 21  1  0  0  0
 20 22  2  0  0  0
 20 23  2  0  0  0
 17 18  1  0  0  0
 18 19  2  0  0  0
  4  5  1  0  0  0
  5  1  1  0  0  0
 13  7  1  0  0  0
 19 14  1  0  0  0
  5  6  1  0  0  0
M  END
> <minimizedAffinity>
-6.40771

> <CNNscore>
0.2687732279

> <CNNaffinity>
5.9988255501

> <CNN_VS>
1.6123237610

> <CNNaffinity_variance>
0.1066731066

$$$$
[H]c1c([H])c(-c2c([H])c(SC([H])([H])[H])n([H])c2-c2c([H])c([H])c(S(=O)(=O)C([H])([H])[H])c([H])c2[H])c([H])c([H])c1F


 25 27  0  0  0  0  0  0  0  0999 V2000
  -88.3522   31.1545   -1.2553 C   0  0  0  0  0  0  0  0  0  0  0  0
  -89.4055   30.6592   -2.0385 C   0  0  0  0  0  0  0  0  0  0  0  0
  -89.8840   29.5163   -1.4474 C   0  0  0  0  0  0  0  0  0  0  0  0
  -89.1342   29.3156   -0.3191 C   0  0  0  0  0  0  0  0  0  0  0  0
  -88.2213   30.3085   -0.2214 N   0  0  0  0  0  0  0  0  0  0  0  0
  -87.5124   30.4285    0.5264 H   0  0  0  0  0  0  0  0  0  0  0  0
  -90.9728   28.6827   -1.9240 C   0  0  0  0  0  0  0  0  0  0  0  0
  -90.7387   27.3853   -2.3311 C   0  0  0  0  0  0  0  0  0  0  0  0
  -91.7258   26.5747   -2.7851 C   0  0  0  0  0  0  0  0  0  0  0  0
  -93.0165   27.0353   -2.8532 C   0  0  0  0  0  0  0  0  0  0  0  0
  -93.9599   26.1950   -3.3104 F   0  0  0  0  0  0  0  0  0  0  0  0
  -93.2832   28.3362   -2.4506 C   0  0  0  0  0  0  0  0  0  0  0  0
  -92.2745   29.1461   -1.9931 C   0  0  0  0  0  0  0  0  0  0  0  0
  -89.3108   28.2071    0.5987 C   0  0  0  0  0  0  0  0  0  0  0  0
  -88.9001   26.9247    0.2192 C   0  0  0  0  0  0  0  0  0  0  0  0
  -89.0963   25.9227    1.1450 C   0  0  0  0  0  0  0  0  0  0  0  0
  -89.6578   26.1170    2.3825 C   0  0  0  0  0  0  0  0  0  0  0  0
  -90.0599   27.3860    2.7467 C   0  0  0  0  0  0  0  0  0  0  0  0
  -89.8797   28.3981    1.8544 C   0  0  0  0  0  0  0  0  0  0  0  0
  -89.8863   24.8254    3.5313 S   0  0  0  0  0  0  0  0  0  0  0  0
  -88.3594   24.5868    4.4198 C   0  0  0  0  0  0  0  0  0  0  0  0
  -90.1895   23.5482    2.7751 O   0  0  0  0  0  0  0  0  0  0  0  0
  -91.0412   25.0899    4.4296 O   0  0  0  0  0  0  0  0  0  0  0  0
  -87.2305   33.6547   -0.0695 C   0  0  0  0  0  0  0  0  0  0  0  0
  -87.3557   32.5992   -1.5289 S   0  0  0  0  0  0  0  0  0  0  0  0
 24 25  1  0  0  0
 25  1  1  0  0  0
  1  2  2  0  0  0
  2  3  1  0  0  0
  3  7  1  0  0  0
  7  8  2  0  0  0
  8  9  1  0  0  0
  9 10  2  0  0  0
 10 11  1  0  0  0
 10 12  1  0  0  0
 12 13  2  0  0  0
  3  4  2  0  0  0
  4 14  1  0  0  0
 14 15  2  0  0  0
 15 16  1  0  0  0
 16 17  2  0  0  0
 17 20  1  0  0  0
 20 21  1  0  0  0
 20 22  2  0  0  0
 20 23  2  0  0  0
 17 18  1  0  0  0
 18 19  2  0  0  0
  4  5  1  0  0  0
  5  1  1  0  0  0
 13  7  1  0  0  0
 19 14  1  0  0  0
  5  6  1  0  0  0
M  END
> <minimizedAffinity>
-3.67229

> <CNNscore>
0.2258825600

> <CNNaffinity>
5.4064950943

> <CNN_VS>
1.2212330103

> <CNNaffinity_variance>
0.3994454741

$$$$
[H]c1c([H])c(-c2c([H])c(SC([H])([H])[H])n([H])c2-c2c([H])c([H])c(S(=O)(=O)C([H])([H])[H])c([H])c2[H])c([H])c([H])c1F


 25 27  0  0  0  0  0  0  0  0999 V2000
  -90.9918   27.0321   -2.2234 C   0  0  0  0  0  0  0  0  0  0  0  0
  -91.2770   26.8518   -0.8616 C   0  0  0  0  0  0  0  0  0  0  0  0
  -90.3505   27.5515   -0.1291 C   0  0  0  0  0  0  0  0  0  0  0  0
  -89.5110   28.1510   -1.0297 C   0  0  0  0  0  0  0  0  0  0  0  0
  -89.9121   27.8276   -2.2801 N   0  0  0  0  0  0  0  0  0  0  0  0
  -89.4746   28.1311   -3.1703 H   0  0  0  0  0  0  0  0  0  0  0  0
  -90.2750   27.6401    1.3180 C   0  0  0  0  0  0  0  0  0  0  0  0
  -91.0625   28.5377    2.0094 C   0  0  0  0  0  0  0  0  0  0  0  0
  -91.0211   28.6543    3.3593 C   0  0  0  0  0  0  0  0  0  0  0  0
  -90.1732   27.8622    4.0918 C   0  0  0  0  0  0  0  0  0  0  0  0
  -90.1675   28.0150    5.4267 F   0  0  0  0  0  0  0  0  0  0  0  0
  -89.3686   26.9497    3.4245 C   0  0  0  0  0  0  0  0  0  0  0  0
  -89.4206   26.8421    2.0576 C   0  0  0  0  0  0  0  0  0  0  0  0
  -88.3815   28.9864   -0.6707 C   0  0  0  0  0  0  0  0  0  0  0  0
  -88.5428   30.3745   -0.6058 C   0  0  0  0  0  0  0  0  0  0  0  0
  -87.4264   31.1022   -0.2542 C   0  0  0  0  0  0  0  0  0  0  0  0
  -86.2025   30.5474    0.0263 C   0  0  0  0  0  0  0  0  0  0  0  0
  -86.0542   29.1769   -0.0410 C   0  0  0  0  0  0  0  0  0  0  0  0
  -87.1384   28.4293   -0.3855 C   0  0  0  0  0  0  0  0  0  0  0  0
  -84.8118   31.4996    0.4729 S   0  0  0  0  0  0  0  0  0  0  0  0
  -84.8893   33.0517   -0.4005 C   0  0  0  0  0  0  0  0  0  0  0  0
  -83.5598   30.7745    0.0238 O   0  0  0  0  0  0  0  0  0  0  0  0
  -84.7165   31.6712    1.9467 O   0  0  0  0  0  0  0  0  0  0  0  0
  -92.8556   27.5924   -4.4878 C   0  0  0  0  0  0  0  0  0  0  0  0
  -91.8473   26.3649   -3.6297 S   0  0  0  0  0  0  0  0  0  0  0  0
 24 25  1  0  0  0
 25  1  1  0  0  0
  1  2  2  0  0  0
  2  3  1  0  0  0
  3  7  1  0  0  0
  7  8  2  0  0  0
  8  9  1  0  0  0
  9 10  2  0  0  0
 10 11  1  0  0  0
 10 12  1  0  0  0
 12 13  2  0  0  0
  3  4  2  0  0  0
  4 14  1  0  0  0
 14 15  2  0  0  0
 15 16  1  0  0  0
 16 17  2  0  0  0
 17 20  1  0  0  0
 20 21  1  0  0  0
 20 22  2  0  0  0
 20 23  2  0  0  0
 17 18  1  0  0  0
 18 19  2  0  0  0
  4  5  1  0  0  0
  5  1  1  0  0  0
 13  7  1  0  0  0
 19 14  1  0  0  0
  5  6  1  0  0  0
M  END
> <minimizedAffinity>
-7.55868

> <CNNscore>
0.2180351764

> <CNNaffinity>
5.7132029533

> <CNN_VS>
1.2456792593

> <CNNaffinity_variance>
0.1610039473

$$$$
[H]c1c([H])c(-c2c([H])c(SC([H])([H])[H])n([H])c2-c2c([H])c([H])c(S(=O)(=O)C([H])([H])[H])c([H])c2[H])c([H])c([H])c1F


 25 27  0  0  0  0  0  0  0  0999 V2000
  -88.3529   27.0673    2.3199 C   0  0  0  0  0  0  0  0  0  0  0  0
  -87.1078   27.6671    2.5615 C   0  0  0  0  0  0  0  0  0  0  0  0
  -86.8545   28.5606    1.5504 C   0  0  0  0  0  0  0  0  0  0  0  0
  -87.9289   28.5080    0.7030 C   0  0  0  0  0  0  0  0  0  0  0  0
  -88.8165   27.6069    1.1817 N   0  0  0  0  0  0  0  0  0  0  0  0
  -89.7275   27.3479    0.7584 H   0  0  0  0  0  0  0  0  0  0  0  0
  -85.6778   29.3988    1.4071 C   0  0  0  0  0  0  0  0  0  0  0  0
  -84.4227   28.9039    1.6963 C   0  0  0  0  0  0  0  0  0  0  0  0
  -83.2992   29.6531    1.5786 C   0  0  0  0  0  0  0  0  0  0  0  0
  -83.3832   30.9565    1.1580 C   0  0  0  0  0  0  0  0  0  0  0  0
  -82.2422   31.6588    1.0576 F   0  0  0  0  0  0  0  0  0  0  0  0
  -84.6321   31.4825    0.8595 C   0  0  0  0  0  0  0  0  0  0  0  0
  -85.7613   30.7130    0.9831 C   0  0  0  0  0  0  0  0  0  0  0  0
  -88.0620   29.2979   -0.5056 C   0  0  0  0  0  0  0  0  0  0  0  0
  -87.5242   28.8199   -1.7053 C   0  0  0  0  0  0  0  0  0  0  0  0
  -87.6933   29.6234   -2.8122 C   0  0  0  0  0  0  0  0  0  0  0  0
  -88.3434   30.8323   -2.7941 C   0  0  0  0  0  0  0  0  0  0  0  0
  -88.8699   31.2948   -1.6051 C   0  0  0  0  0  0  0  0  0  0  0  0
  -88.7199   30.5243   -0.4930 C   0  0  0  0  0  0  0  0  0  0  0  0
  -88.5430   31.8209   -4.2164 S   0  0  0  0  0  0  0  0  0  0  0  0
  -90.2227   32.4166   -4.2557 C   0  0  0  0  0  0  0  0  0  0  0  0
  -88.3255   30.9594   -5.4434 O   0  0  0  0  0  0  0  0  0  0  0  0
  -87.5406   32.9180   -4.2654 O   0  0  0  0  0  0  0  0  0  0  0  0
  -90.1057   26.5349    4.6777 C   0  0  0  0  0  0  0  0  0  0  0  0
  -89.1926   25.8358    3.2859 S   0  0  0  0  0  0  0  0  0  0  0  0
 24 25  1  0  0  0
 25  1  1  0  0  0
  1  2  2  0  0  0
  2  3  1  0  0  0
  3  7  1  0  0  0
  7  8  2  0  0  0
  8  9  1  0  0  0
  9 10  2  0  0  0
 10 11  1  0  0  0
 10 12  1  0  0  0
 12 13  2  0  0  0
  3  4  2  0  0  0
  4 14  1  0  0  0
 14 15  2  0  0  0
 15 16  1  0  0  0
 16 17  2  0  0  0
 17 20  1  0  0  0
 20 21  1  0  0  0
 20 22  2  0  0  0
 20 23  2  0  0  0
 17 18  1  0  0  0
 18 19  2  0  0  0
  4  5  1  0  0  0
  5  1  1  0  0  0
 13  7  1  0  0  0
 19 14  1  0  0  0
  5  6  1  0  0  0
M  END
> <minimizedAffinity>
-8.70519

> <CNNscore>
0.1954353005

> <CNNaffinity>
5.9578895569

> <CNN_VS>
1.1643819809

> <CNNaffinity_variance>
0.1574868113

$$$$
[H]c1c([H])c(-c2c([H])c(SC([H])([H])[H])n([H])c2-c2c([H])c([H])c(S(=O)(=O)C([H])([H])[H])c([H])c2[H])c([H])c([H])c1F


 25 27  0  0  0  0  0  0  0  0999 V2000
  -88.3107   34.3905   -2.8555 C   0  0  0  0  0  0  0  0  0  0  0  0
  -87.0734   34.3937   -2.1940 C   0  0  0  0  0  0  0  0  0  0  0  0
  -86.8745   33.1526   -1.6421 C   0  0  0  0  0  0  0  0  0  0  0  0
  -87.9740   32.4012   -1.9614 C   0  0  0  0  0  0  0  0  0  0  0  0
  -88.8235   33.1612   -2.6892 N   0  0  0  0  0  0  0  0  0  0  0  0
  -89.7408   32.8698   -3.0763 H   0  0  0  0  0  0  0  0  0  0  0  0
  -85.7232   32.7197   -0.8710 C   0  0  0  0  0  0  0  0  0  0  0  0
  -85.8791   31.8860    0.2173 C   0  0  0  0  0  0  0  0  0  0  0  0
  -84.8318   31.4607    0.9654 C   0  0  0  0  0  0  0  0  0  0  0  0
  -83.5566   31.8584    0.6515 C   0  0  0  0  0  0  0  0  0  0  0  0
  -82.5515   31.4112    1.4228 F   0  0  0  0  0  0  0  0  0  0  0  0
  -83.3679   32.6970   -0.4378 C   0  0  0  0  0  0  0  0  0  0  0  0
  -84.4371   33.1200   -1.1866 C   0  0  0  0  0  0  0  0  0  0  0  0
  -88.1693   31.0203   -1.5649 C   0  0  0  0  0  0  0  0  0  0  0  0
  -87.6161   29.9950   -2.3394 C   0  0  0  0  0  0  0  0  0  0  0  0
  -87.8402   28.7088   -1.8980 C   0  0  0  0  0  0  0  0  0  0  0  0
  -88.5577   28.3957   -0.7703 C   0  0  0  0  0  0  0  0  0  0  0  0
  -89.0994   29.4148   -0.0136 C   0  0  0  0  0  0  0  0  0  0  0  0
  -88.8959   30.6971   -0.4228 C   0  0  0  0  0  0  0  0  0  0  0  0
  -88.8171   26.7555   -0.2387 S   0  0  0  0  0  0  0  0  0  0  0  0
  -87.3102   26.1607    0.5050 C   0  0  0  0  0  0  0  0  0  0  0  0
  -89.1120   25.8919   -1.4480 O   0  0  0  0  0  0  0  0  0  0  0  0
  -89.9887   26.6539    0.6711 O   0  0  0  0  0  0  0  0  0  0  0  0
  -88.3877   37.3322   -3.3612 C   0  0  0  0  0  0  0  0  0  0  0  0
  -89.0923   35.7147   -3.7445 S   0  0  0  0  0  0  0  0  0  0  0  0
 24 25  1  0  0  0
 25  1  1  0  0  0
  1  2  2  0  0  0
  2  3  1  0  0  0
  3  7  1  0  0  0
  7  8  2  0  0  0
  8  9  1  0  0  0
  9 10  2  0  0  0
 10 11  1  0  0  0
 10 12  1  0  0  0
 12 13  2  0  0  0
  3  4  2  0  0  0
  4 14  1  0  0  0
 14 15  2  0  0  0
 15 16  1  0  0  0
 16 17  2  0  0  0
 17 20  1  0  0  0
 20 21  1  0  0  0
 20 22  2  0  0  0
 20 23  2  0  0  0
 17 18  1  0  0  0
 18 19  2  0  0  0
  4  5  1  0  0  0
  5  1  1  0  0  0
 13  7  1  0  0  0
 19 14  1  0  0  0
  5  6  1  0  0  0
M  END
> <minimizedAffinity>
-7.97469

> <CNNscore>
0.1689044833

> <CNNaffinity>
5.6616959572

> <CNN_VS>
0.9562858343

> <CNNaffinity_variance>
0.3327758908

$$$$
[H]c1c([H])c(-c2c([H])c(SC([H])([H])[H])n([H])c2-c2c([H])c([H])c(S(=O)(=O)C([H])([H])[H])c([H])c2[H])c([H])c([H])c1F


 25 27  0  0  0  0  0  0  0  0999 V2000
  -87.1165   33.6580   -2.1043 C   0  0  0  0  0  0  0  0  0  0  0  0
  -86.0016   33.3685   -1.3034 C   0  0  0  0  0  0  0  0  0  0  0  0
  -86.1307   32.0867   -0.8291 C   0  0  0  0  0  0  0  0  0  0  0  0
  -87.3074   31.5995   -1.3325 C   0  0  0  0  0  0  0  0  0  0  0  0
  -87.8836   32.5566   -2.0947 N   0  0  0  0  0  0  0  0  0  0  0  0
  -88.7819   32.4837   -2.6084 H   0  0  0  0  0  0  0  0  0  0  0  0
  -85.2013   31.3836    0.0367 C   0  0  0  0  0  0  0  0  0  0  0  0
  -83.8502   31.3733   -0.2432 C   0  0  0  0  0  0  0  0  0  0  0  0
  -82.9494   30.7273    0.5370 C   0  0  0  0  0  0  0  0  0  0  0  0
  -83.3686   30.0497    1.6540 C   0  0  0  0  0  0  0  0  0  0  0  0
  -82.4386   29.4244    2.3952 F   0  0  0  0  0  0  0  0  0  0  0  0
  -84.7217   30.0420    1.9616 C   0  0  0  0  0  0  0  0  0  0  0  0
  -85.6229   30.7000    1.1632 C   0  0  0  0  0  0  0  0  0  0  0  0
  -87.8268   30.2717   -1.0692 C   0  0  0  0  0  0  0  0  0  0  0  0
  -87.2822   29.1717   -1.7405 C   0  0  0  0  0  0  0  0  0  0  0  0
  -87.8241   27.9418   -1.4356 C   0  0  0  0  0  0  0  0  0  0  0  0
  -88.8409   27.7507   -0.5332 C   0  0  0  0  0  0  0  0  0  0  0  0
  -89.3713   28.8426    0.1233 C   0  0  0  0  0  0  0  0  0  0  0  0
  -88.8576   30.0720   -0.1556 C   0  0  0  0  0  0  0  0  0  0  0  0
  -89.4991   26.1778   -0.1684 S   0  0  0  0  0  0  0  0  0  0  0  0
  -91.2436   26.3588    0.1508 C   0  0  0  0  0  0  0  0  0  0  0  0
  -88.8460   25.6572    1.0955 O   0  0  0  0  0  0  0  0  0  0  0  0
  -89.2090   25.1990   -1.2493 O   0  0  0  0  0  0  0  0  0  0  0  0
  -87.6768   34.9154   -4.7539 C   0  0  0  0  0  0  0  0  0  0  0  0
  -87.4922   35.1601   -2.9747 S   0  0  0  0  0  0  0  0  0  0  0  0
 24 25  1  0  0  0
 25  1  1  0  0  0
  1  2  2  0  0  0
  2  3  1  0  0  0
  3  7  1  0  0  0
  7  8  2  0  0  0
  8  9  1  0  0  0
  9 10  2  0  0  0
 10 11  1  0  0  0
 10 12  1  0  0  0
 12 13  2  0  0  0
  3  4  2  0  0  0
  4 14  1  0  0  0
 14 15  2  0  0  0
 15 16  1  0  0  0
 16 17  2  0  0  0
 17 20  1  0  0  0
 20 21  1  0  0  0
 20 22  2  0  0  0
 20 23  2  0  0  0
 17 18  1  0  0  0
 18 19  2  0  0  0
  4  5  1  0  0  0
  5  1  1  0  0  0
 13  7  1  0  0  0
 19 14  1  0  0  0
  5  6  1  0  0  0
M  END
> <minimizedAffinity>
-8.29985

> <CNNscore>
0.1635780036

> <CNNaffinity>
5.7489404678

> <CNN_VS>
0.9404001832

> <CNNaffinity_variance>
0.2869316936

$$$$
[H]OC([H])([H])C([H])([H])N([H])C(=O)[C@@]1([H])O[C@@]([H])(n2c([H])nc3c(N([H])C([H])([H])c4c([H])c([H])c([H])c([H])c4C([H])([H])[H])nc([H])nc32)[C@]([H])(O[H])[C@]1([H])O[H]


 36 39  0  0  0  0  0  0  0  0999 V2000
  -86.6284   33.4961   -2.6259 C   0  0  0  0  0  0  0  0  0  0  0  0
  -85.8857   33.4488   -1.4979 N   0  0  0  0  0  0  0  0  0  0  0  0
  -85.9565   32.4244   -0.6370 C   0  0  0  0  0  0  0  0  0  0  0  0
  -86.7928   31.4123   -0.9043 N   0  0  0  0  0  0  0  0  0  0  0  0
  -87.5517   31.4018   -2.0016 C   0  0  0  0  0  0  0  0  0  0  0  0
  -87.4834   32.4404   -2.8796 C   0  0  0  0  0  0  0  0  0  0  0  0
  -88.3379   32.1870   -3.8884 N   0  0  0  0  0  0  0  0  0  0  0  0
  -88.9462   31.0094   -3.6676 C   0  0  0  0  0  0  0  0  0  0  0  0
  -88.4607   30.5335   -2.5110 N   0  0  0  0  0  0  0  0  0  0  0  0
  -88.8487   29.2981   -1.9130 C   0  0  0  0  0  0  0  0  0  0  0  0
  -88.7669   29.3088   -0.5227 O   0  0  0  0  0  0  0  0  0  0  0  0
  -88.8806   27.9435   -0.1976 C   0  0  0  0  0  0  0  0  0  0  0  0
  -87.7930   27.3653   -1.0958 C   0  0  0  0  0  0  0  0  0  0  0  0
  -87.8704   26.0030   -1.2208 O   0  0  0  0  0  0  0  0  0  0  0  0
  -88.1102   28.0958   -2.3951 C   0  0  0  0  0  0  0  0  0  0  0  0
  -88.9373   27.2354   -3.1362 O   0  0  0  0  0  0  0  0  0  0  0  0
  -86.9731   25.6558   -1.4922 H   0  0  0  0  0  0  0  0  0  0  0  0
  -88.5846   27.1199   -4.0598 H   0  0  0  0  0  0  0  0  0  0  0  0
  -88.6610   27.6822    1.2153 C   0  0  0  0  0  0  0  0  0  0  0  0
  -87.5851   28.0073    1.7637 O   0  0  0  0  0  0  0  0  0  0  0  0
  -89.6589   27.0557    1.9982 N   0  0  0  0  0  0  0  0  0  0  0  0
  -90.5604   26.7771    1.5637 H   0  0  0  0  0  0  0  0  0  0  0  0
  -89.4646   26.7828    3.4143 C   0  0  0  0  0  0  0  0  0  0  0  0
  -90.4951   27.4976    4.2228 C   0  0  0  0  0  0  0  0  0  0  0  0
  -91.2861   26.5627    4.8934 O   0  0  0  0  0  0  0  0  0  0  0  0
  -91.6581   26.9378    5.7468 H   0  0  0  0  0  0  0  0  0  0  0  0
  -86.5497   34.6007   -3.5144 N   0  0  0  0  0  0  0  0  0  0  0  0
  -85.7495   34.6166   -4.1937 H   0  0  0  0  0  0  0  0  0  0  0  0
  -87.4972   35.6708   -3.5210 C   0  0  0  0  0  0  0  0  0  0  0  0
  -90.2959   35.7004   -3.9955 C   0  0  0  0  0  0  0  0  0  0  0  0
  -89.3770   36.0699   -5.0800 C   0  0  0  0  0  0  0  0  0  0  0  0
  -89.8702   36.4132   -6.3018 C   0  0  0  0  0  0  0  0  0  0  0  0
  -89.0328   36.7652   -7.3402 C   0  0  0  0  0  0  0  0  0  0  0  0
  -87.6669   36.7760   -7.1590 C   0  0  0  0  0  0  0  0  0  0  0  0
  -87.1974   36.4212   -5.9032 C   0  0  0  0  0  0  0  0  0  0  0  0
  -87.9989   36.0660   -4.8466 C   0  0  0  0  0  0  0  0  0  0  0  0
 30 31  1  0  0  0
 31 32  2  0  0  0
 32 33  1  0  0  0
 33 34  2  0  0  0
 34 35  1  0  0  0
 35 36  2  0  0  0
 36 29  1  0  0  0
 29 27  1  0  0  0
 27  1  1  0  0  0
  1  2  2  0  0  0
  2  3  1  0  0  0
  3  4  2  0  0  0
  4  5  1  0  0  0
  5  6  2  0  0  0
  6  7  1  0  0  0
  7  8  2  0  0  0
  8  9  1  0  0  0
  9 10  1  0  0  0
 10 11  1  0  0  0
 11 12  1  0  0  0
 12 19  1  0  0  0
 19 20  2  0  0  0
 19 21  1  0  0  0
 21 23  1  0  0  0
 23 24  1  0  0  0
 24 25  1  0  0  0
 12 13  1  0  0  0
 13 14  1  0  0  0
 13 15  1  0  0  0
 15 16  1  0  0  0
 36 31  1  0  0  0
  6  1  1  0  0  0
 15 10  1  0  0  0
  9  5  1  0  0  0
 27 28  1  0  0  0
 21 22  1  0  0  0
 25 26  1  0  0  0
 14 17  1  0  0  0
 16 18  1  0  0  0
M  END
> <minimizedAffinity>
-8.18692

> <CNNscore>
0.2508552074

> <CNNaffinity>
5.7572345734

> <CNN_VS>
1.4442322254

> <CNNaffinity_variance>
0.1510610431

$$$$
[H]OC([H])([H])C([H])([H])N([H])C(=O)[C@@]1([H])O[C@@]([H])(n2c([H])nc3c(N([H])C([H])([H])c4c([H])c([H])c([H])c([H])c4C([H])([H])[H])nc([H])nc32)[C@]([H])(O[H])[C@]1([H])O[H]


 36 39  0  0  0  0  0  0  0  0999 V2000
  -87.1197   33.3170   -3.1022 C   0  0  0  0  0  0  0  0  0  0  0  0
  -86.6069   33.9449   -2.0211 N   0  0  0  0  0  0  0  0  0  0  0  0
  -86.5122   33.3482   -0.8249 C   0  0  0  0  0  0  0  0  0  0  0  0
  -86.9410   32.0853   -0.6971 N   0  0  0  0  0  0  0  0  0  0  0  0
  -87.4567   31.4129   -1.7276 C   0  0  0  0  0  0  0  0  0  0  0  0
  -87.5551   32.0148   -2.9452 C   0  0  0  0  0  0  0  0  0  0  0  0
  -88.1021   31.1314   -3.8010 N   0  0  0  0  0  0  0  0  0  0  0  0
  -88.3524   29.9824   -3.1510 C   0  0  0  0  0  0  0  0  0  0  0  0
  -87.9552   30.1609   -1.8820 N   0  0  0  0  0  0  0  0  0  0  0  0
  -88.0474   29.1758   -0.8546 C   0  0  0  0  0  0  0  0  0  0  0  0
  -86.9431   29.1590   -0.0061 O   0  0  0  0  0  0  0  0  0  0  0  0
  -87.1092   27.9467    0.6905 C   0  0  0  0  0  0  0  0  0  0  0  0
  -87.2784   26.9876   -0.4823 C   0  0  0  0  0  0  0  0  0  0  0  0
  -87.7625   25.7623   -0.1061 O   0  0  0  0  0  0  0  0  0  0  0  0
  -88.2693   27.7792   -1.3274 C   0  0  0  0  0  0  0  0  0  0  0  0
  -89.5457   27.3055   -0.9806 O   0  0  0  0  0  0  0  0  0  0  0  0
  -87.5140   25.0924   -0.8053 H   0  0  0  0  0  0  0  0  0  0  0  0
  -90.0610   27.0585   -1.7956 H   0  0  0  0  0  0  0  0  0  0  0  0
  -85.9731   27.6258    1.5386 C   0  0  0  0  0  0  0  0  0  0  0  0
  -85.8797   26.5026    2.0804 O   0  0  0  0  0  0  0  0  0  0  0  0
  -84.9509   28.5764    1.7680 N   0  0  0  0  0  0  0  0  0  0  0  0
  -85.0077   29.5158    1.3281 H   0  0  0  0  0  0  0  0  0  0  0  0
  -83.8032   28.2808    2.6123 C   0  0  0  0  0  0  0  0  0  0  0  0
  -82.5825   28.9503    2.0753 C   0  0  0  0  0  0  0  0  0  0  0  0
  -82.9611   30.0503    1.3033 O   0  0  0  0  0  0  0  0  0  0  0  0
  -82.2531   30.7617    1.3016 H   0  0  0  0  0  0  0  0  0  0  0  0
  -87.2265   33.9756   -4.3554 N   0  0  0  0  0  0  0  0  0  0  0  0
  -86.4583   33.8131   -5.0522 H   0  0  0  0  0  0  0  0  0  0  0  0
  -88.3162   34.8341   -4.6997 C   0  0  0  0  0  0  0  0  0  0  0  0
  -87.6610   36.4861   -6.9134 C   0  0  0  0  0  0  0  0  0  0  0  0
  -87.7528   37.0798   -5.5732 C   0  0  0  0  0  0  0  0  0  0  0  0
  -87.5151   38.4093   -5.4008 C   0  0  0  0  0  0  0  0  0  0  0  0
  -87.5938   38.9962   -4.1546 C   0  0  0  0  0  0  0  0  0  0  0  0
  -87.9174   38.2402   -3.0490 C   0  0  0  0  0  0  0  0  0  0  0  0
  -88.1532   36.8898   -3.2590 C   0  0  0  0  0  0  0  0  0  0  0  0
  -88.0850   36.2710   -4.4827 C   0  0  0  0  0  0  0  0  0  0  0  0
 30 31  1  0  0  0
 31 32  2  0  0  0
 32 33  1  0  0  0
 33 34  2  0  0  0
 34 35  1  0  0  0
 35 36  2  0  0  0
 36 29  1  0  0  0
 29 27  1  0  0  0
 27  1  1  0  0  0
  1  2  2  0  0  0
  2  3  1  0  0  0
  3  4  2  0  0  0
  4  5  1  0  0  0
  5  6  2  0  0  0
  6  7  1  0  0  0
  7  8  2  0  0  0
  8  9  1  0  0  0
  9 10  1  0  0  0
 10 11  1  0  0  0
 11 12  1  0  0  0
 12 19  1  0  0  0
 19 20  2  0  0  0
 19 21  1  0  0  0
 21 23  1  0  0  0
 23 24  1  0  0  0
 24 25  1  0  0  0
 12 13  1  0  0  0
 13 14  1  0  0  0
 13 15  1  0  0  0
 15 16  1  0  0  0
 36 31  1  0  0  0
  6  1  1  0  0  0
 15 10  1  0  0  0
  9  5  1  0  0  0
 27 28  1  0  0  0
 21 22  1  0  0  0
 25 26  1  0  0  0
 14 17  1  0  0  0
 16 18  1  0  0  0
M  END
> <minimizedAffinity>
-7.81445

> <CNNscore>
0.1912671924

> <CNNaffinity>
5.4793462753

> <CNN_VS>
1.0480191708

> <CNNaffinity_variance>
0.3842141032

$$$$
[H]OC([H])([H])C([H])([H])N([H])C(=O)[C@@]1([H])O[C@@]([H])(n2c([H])nc3c(N([H])C([H])([H])c4c([H])c([H])c([H])c([H])c4C([H])([H])[H])nc([H])nc32)[C@]([H])(O[H])[C@]1([H])O[H]


 36 39  0  0  0  0  0  0  0  0999 V2000
  -86.2498   32.4782   -0.7559 C   0  0  0  0  0  0  0  0  0  0  0  0
  -85.0539   32.4408   -0.1277 N   0  0  0  0  0  0  0  0  0  0  0  0
  -84.5882   31.3296    0.4590 C   0  0  0  0  0  0  0  0  0  0  0  0
  -85.3346   30.2176    0.4213 N   0  0  0  0  0  0  0  0  0  0  0  0
  -86.5235   30.1921   -0.1837 C   0  0  0  0  0  0  0  0  0  0  0  0
  -87.0011   31.3185   -0.7814 C   0  0  0  0  0  0  0  0  0  0  0  0
  -88.2040   31.0281   -1.3113 N   0  0  0  0  0  0  0  0  0  0  0  0
  -88.4984   29.7411   -1.0616 C   0  0  0  0  0  0  0  0  0  0  0  0
  -87.4658   29.2346   -0.3709 N   0  0  0  0  0  0  0  0  0  0  0  0
  -87.3800   27.8889    0.0939 C   0  0  0  0  0  0  0  0  0  0  0  0
  -88.2431   27.0203   -0.5696 O   0  0  0  0  0  0  0  0  0  0  0  0
  -88.2130   25.8736    0.2470 C   0  0  0  0  0  0  0  0  0  0  0  0
  -88.5332   26.5018    1.5986 C   0  0  0  0  0  0  0  0  0  0  0  0
  -88.2753   25.6648    2.6523 O   0  0  0  0  0  0  0  0  0  0  0  0
  -87.5973   27.7039    1.5574 C   0  0  0  0  0  0  0  0  0  0  0  0
  -86.4212   27.3072    2.2155 O   0  0  0  0  0  0  0  0  0  0  0  0
  -88.8201   25.9614    3.4364 H   0  0  0  0  0  0  0  0  0  0  0  0
  -86.1698   27.9704    2.9138 H   0  0  0  0  0  0  0  0  0  0  0  0
  -89.1768   24.8659   -0.1635 C   0  0  0  0  0  0  0  0  0  0  0  0
  -89.7261   24.9293   -1.2852 O   0  0  0  0  0  0  0  0  0  0  0  0
  -89.5126   23.7941    0.6965 N   0  0  0  0  0  0  0  0  0  0  0  0
  -89.0686   23.7215    1.6329 H   0  0  0  0  0  0  0  0  0  0  0  0
  -90.4739   22.7723    0.3102 C   0  0  0  0  0  0  0  0  0  0  0  0
  -89.8815   21.4142    0.4874 C   0  0  0  0  0  0  0  0  0  0  0  0
  -88.5925   21.3992   -0.0489 O   0  0  0  0  0  0  0  0  0  0  0  0
  -88.0080   20.7267    0.4130 H   0  0  0  0  0  0  0  0  0  0  0  0
  -86.7305   33.6721   -1.3551 N   0  0  0  0  0  0  0  0  0  0  0  0
  -87.1447   34.3975   -0.7193 H   0  0  0  0  0  0  0  0  0  0  0  0
  -86.6747   33.9211   -2.7615 C   0  0  0  0  0  0  0  0  0  0  0  0
  -87.5940   31.9151   -4.5474 C   0  0  0  0  0  0  0  0  0  0  0  0
  -88.4207   33.1064   -4.3143 C   0  0  0  0  0  0  0  0  0  0  0  0
  -89.6115   33.2446   -4.9599 C   0  0  0  0  0  0  0  0  0  0  0  0
  -90.4104   34.3519   -4.7618 C   0  0  0  0  0  0  0  0  0  0  0  0
  -90.0143   35.3496   -3.8980 C   0  0  0  0  0  0  0  0  0  0  0  0
  -88.7966   35.1782   -3.2568 C   0  0  0  0  0  0  0  0  0  0  0  0
  -87.9755   34.0912   -3.4280 C   0  0  0  0  0  0  0  0  0  0  0  0
 30 31  1  0  0  0
 31 32  2  0  0  0
 32 33  1  0  0  0
 33 34  2  0  0  0
 34 35  1  0  0  0
 35 36  2  0  0  0
 36 29  1  0  0  0
 29 27  1  0  0  0
 27  1  1  0  0  0
  1  2  2  0  0  0
  2  3  1  0  0  0
  3  4  2  0  0  0
  4  5  1  0  0  0
  5  6  2  0  0  0
  6  7  1  0  0  0
  7  8  2  0  0  0
  8  9  1  0  0  0
  9 10  1  0  0  0
 10 11  1  0  0  0
 11 12  1  0  0  0
 12 19  1  0  0  0
 19 20  2  0  0  0
 19 21  1  0  0  0
 21 23  1  0  0  0
 23 24  1  0  0  0
 24 25  1  0  0  0
 12 13  1  0  0  0
 13 14  1  0  0  0
 13 15  1  0  0  0
 15 16  1  0  0  0
 36 31  1  0  0  0
  6  1  1  0  0  0
 15 10  1  0  0  0
  9  5  1  0  0  0
 27 28  1  0  0  0
 21 22  1  0  0  0
 25 26  1  0  0  0
 14 17  1  0  0  0
 16 18  1  0  0  0
M  END
> <minimizedAffinity>
-8.31853

> <CNNscore>
0.1766754836

> <CNNaffinity>
5.7594699860

> <CNN_VS>
1.0175571442

> <CNNaffinity_variance>
0.2416218072

$$$$
[H]OC([H])([H])C([H])([H])N([H])C(=O)[C@@]1([H])O[C@@]([H])(n2c([H])nc3c(N([H])C([H])([H])c4c([H])c([H])c([H])c([H])c4C([H])([H])[H])nc([H])nc32)[C@]([H])(O[H])[C@]1([H])O[H]


 36 39  0  0  0  0  0  0  0  0999 V2000
  -85.9886   28.1762    0.8531 C   0  0  0  0  0  0  0  0  0  0  0  0
  -86.1289   27.3958    1.9474 N   0  0  0  0  0  0  0  0  0  0  0  0
  -87.1301   26.5141    2.0739 C   0  0  0  0  0  0  0  0  0  0  0  0
  -88.0226   26.4029    1.0807 N   0  0  0  0  0  0  0  0  0  0  0  0
  -87.9371   27.1457   -0.0243 C   0  0  0  0  0  0  0  0  0  0  0  0
  -86.9215   28.0430   -0.1577 C   0  0  0  0  0  0  0  0  0  0  0  0
  -87.0632   28.6551   -1.3482 N   0  0  0  0  0  0  0  0  0  0  0  0
  -88.1474   28.1642   -1.9718 C   0  0  0  0  0  0  0  0  0  0  0  0
  -88.6782   27.2405   -1.1563 N   0  0  0  0  0  0  0  0  0  0  0  0
  -89.8480   26.4770   -1.4444 C   0  0  0  0  0  0  0  0  0  0  0  0
  -90.5445   26.9350   -2.5600 O   0  0  0  0  0  0  0  0  0  0  0  0
  -91.7745   26.2579   -2.4539 C   0  0  0  0  0  0  0  0  0  0  0  0
  -92.1545   26.6207   -1.0227 C   0  0  0  0  0  0  0  0  0  0  0  0
  -93.1739   25.8502   -0.5281 O   0  0  0  0  0  0  0  0  0  0  0  0
  -90.8254   26.3594   -0.3244 C   0  0  0  0  0  0  0  0  0  0  0  0
  -90.8959   25.0476    0.1736 O   0  0  0  0  0  0  0  0  0  0  0  0
  -93.6114   26.3438    0.2233 H   0  0  0  0  0  0  0  0  0  0  0  0
  -90.6519   25.0255    1.1383 H   0  0  0  0  0  0  0  0  0  0  0  0
  -92.7471   26.7017   -3.4388 C   0  0  0  0  0  0  0  0  0  0  0  0
  -93.6981   27.4426   -3.1062 O   0  0  0  0  0  0  0  0  0  0  0  0
  -92.6377   26.3051   -4.7923 N   0  0  0  0  0  0  0  0  0  0  0  0
  -91.8557   25.6899   -5.0912 H   0  0  0  0  0  0  0  0  0  0  0  0
  -93.5974   26.7351   -5.7981 C   0  0  0  0  0  0  0  0  0  0  0  0
  -93.0941   27.9492   -6.5046 C   0  0  0  0  0  0  0  0  0  0  0  0
  -91.9734   27.6096   -7.2650 O   0  0  0  0  0  0  0  0  0  0  0  0
  -91.8743   28.2081   -8.0645 H   0  0  0  0  0  0  0  0  0  0  0  0
  -84.9297   29.1162    0.7491 N   0  0  0  0  0  0  0  0  0  0  0  0
  -84.0636   28.8121    0.2398 H   0  0  0  0  0  0  0  0  0  0  0  0
  -84.9940   30.4338    1.2993 C   0  0  0  0  0  0  0  0  0  0  0  0
  -82.7913   31.9380    0.3277 C   0  0  0  0  0  0  0  0  0  0  0  0
  -84.1462   32.2605   -0.1387 C   0  0  0  0  0  0  0  0  0  0  0  0
  -84.3368   33.2792   -1.0217 C   0  0  0  0  0  0  0  0  0  0  0  0
  -85.5970   33.6060   -1.4784 C   0  0  0  0  0  0  0  0  0  0  0  0
  -86.6984   32.9007   -1.0448 C   0  0  0  0  0  0  0  0  0  0  0  0
  -86.4697   31.8698   -0.1458 C   0  0  0  0  0  0  0  0  0  0  0  0
  -85.2317   31.5153    0.3302 C   0  0  0  0  0  0  0  0  0  0  0  0
 30 31  1  0  0  0
 31 32  2  0  0  0
 32 33  1  0  0  0
 33 34  2  0  0  0
 34 35  1  0  0  0
 35 36  2  0  0  0
 36 29  1  0  0  0
 29 27  1  0  0  0
 27  1  1  0  0  0
  1  2  2  0  0  0
  2  3  1  0  0  0
  3  4  2  0  0  0
  4  5  1  0  0  0
  5  6  2  0  0  0
  6  7  1  0  0  0
  7  8  2  0  0  0
  8  9  1  0  0  0
  9 10  1  0  0  0
 10 11  1  0  0  0
 11 12  1  0  0  0
 12 19  1  0  0  0
 19 20  2  0  0  0
 19 21  1  0  0  0
 21 23  1  0  0  0
 23 24  1  0  0  0
 24 25  1  0  0  0
 12 13  1  0  0  0
 13 14  1  0  0  0
 13 15  1  0  0  0
 15 16  1  0  0  0
 36 31  1  0  0  0
  6  1  1  0  0  0
 15 10  1  0  0  0
  9  5  1  0  0  0
 27 28  1  0  0  0
 21 22  1  0  0  0
 25 26  1  0  0  0
 14 17  1  0  0  0
 16 18  1  0  0  0
M  END
> <minimizedAffinity>
-8.22062

> <CNNscore>
0.1653876752

> <CNNaffinity>
5.5049314499

> <CNN_VS>
0.9104478359

> <CNNaffinity_variance>
0.1494678557

$$$$
[H]OC([H])([H])C([H])([H])N([H])C(=O)[C@@]1([H])O[C@@]([H])(n2c([H])nc3c(N([H])C([H])([H])c4c([H])c([H])c([H])c([H])c4C([H])([H])[H])nc([H])nc32)[C@]([H])(O[H])[C@]1([H])O[H]


 36 39  0  0  0  0  0  0  0  0999 V2000
  -87.2172   31.2562   -0.5053 C   0  0  0  0  0  0  0  0  0  0  0  0
  -88.2527   32.1217   -0.5736 N   0  0  0  0  0  0  0  0  0  0  0  0
  -89.5170   31.7128   -0.7467 C   0  0  0  0  0  0  0  0  0  0  0  0
  -89.7624   30.4001   -0.8558 N   0  0  0  0  0  0  0  0  0  0  0  0
  -88.7821   29.4969   -0.7962 C   0  0  0  0  0  0  0  0  0  0  0  0
  -87.4956   29.9074   -0.6204 C   0  0  0  0  0  0  0  0  0  0  0  0
  -86.7115   28.8135   -0.5952 N   0  0  0  0  0  0  0  0  0  0  0  0
  -87.4745   27.7186   -0.7515 C   0  0  0  0  0  0  0  0  0  0  0  0
  -88.7411   28.1434   -0.8741 N   0  0  0  0  0  0  0  0  0  0  0  0
  -89.8703   27.2919   -1.0590 C   0  0  0  0  0  0  0  0  0  0  0  0
  -90.1108   26.4516    0.0253 O   0  0  0  0  0  0  0  0  0  0  0  0
  -91.0307   25.5251   -0.5018 C   0  0  0  0  0  0  0  0  0  0  0  0
  -90.2770   25.0844   -1.7515 C   0  0  0  0  0  0  0  0  0  0  0  0
  -91.0652   24.3981   -2.6377 O   0  0  0  0  0  0  0  0  0  0  0  0
  -89.8354   26.4423   -2.2839 C   0  0  0  0  0  0  0  0  0  0  0  0
  -90.8088   26.8316   -3.2192 O   0  0  0  0  0  0  0  0  0  0  0  0
  -90.4769   23.8406   -3.2228 H   0  0  0  0  0  0  0  0  0  0  0  0
  -90.3826   27.0950   -4.0793 H   0  0  0  0  0  0  0  0  0  0  0  0
  -91.3163   24.4334    0.4145 C   0  0  0  0  0  0  0  0  0  0  0  0
  -92.4957   24.0871    0.6450 O   0  0  0  0  0  0  0  0  0  0  0  0
  -90.2671   23.7411    1.0633 N   0  0  0  0  0  0  0  0  0  0  0  0
  -89.2798   24.0116    0.8868 H   0  0  0  0  0  0  0  0  0  0  0  0
  -90.5255   22.6449    1.9848 C   0  0  0  0  0  0  0  0  0  0  0  0
  -90.4994   23.1384    3.3928 C   0  0  0  0  0  0  0  0  0  0  0  0
  -91.7484   23.6706    3.7187 O   0  0  0  0  0  0  0  0  0  0  0  0
  -91.9372   23.5948    4.7015 H   0  0  0  0  0  0  0  0  0  0  0  0
  -85.8836   31.7139   -0.3394 N   0  0  0  0  0  0  0  0  0  0  0  0
  -85.3315   31.9156   -1.2092 H   0  0  0  0  0  0  0  0  0  0  0  0
  -85.2742   31.9073    0.9391 C   0  0  0  0  0  0  0  0  0  0  0  0
  -82.4956   31.5882    0.4532 C   0  0  0  0  0  0  0  0  0  0  0  0
  -83.2099   30.5771    1.2433 C   0  0  0  0  0  0  0  0  0  0  0  0
  -82.5405   29.4945    1.7269 C   0  0  0  0  0  0  0  0  0  0  0  0
  -83.1836   28.5280    2.4724 C   0  0  0  0  0  0  0  0  0  0  0  0
  -84.5296   28.6406    2.7445 C   0  0  0  0  0  0  0  0  0  0  0  0
  -85.1815   29.7546    2.2373 C   0  0  0  0  0  0  0  0  0  0  0  0
  -84.5759   30.7364    1.4928 C   0  0  0  0  0  0  0  0  0  0  0  0
 30 31  1  0  0  0
 31 32  2  0  0  0
 32 33  1  0  0  0
 33 34  2  0  0  0
 34 35  1  0  0  0
 35 36  2  0  0  0
 36 29  1  0  0  0
 29 27  1  0  0  0
 27  1  1  0  0  0
  1  2  2  0  0  0
  2  3  1  0  0  0
  3  4  2  0  0  0
  4  5  1  0  0  0
  5  6  2  0  0  0
  6  7  1  0  0  0
  7  8  2  0  0  0
  8  9  1  0  0  0
  9 10  1  0  0  0
 10 11  1  0  0  0
 11 12  1  0  0  0
 12 19  1  0  0  0
 19 20  2  0  0  0
 19 21  1  0  0  0
 21 23  1  0  0  0
 23 24  1  0  0  0
 24 25  1  0  0  0
 12 13  1  0  0  0
 13 14  1  0  0  0
 13 15  1  0  0  0
 15 16  1  0  0  0
 36 31  1  0  0  0
  6  1  1  0  0  0
 15 10  1  0  0  0
  9  5  1  0  0  0
 27 28  1  0  0  0
 21 22  1  0  0  0
 25 26  1  0  0  0
 14 17  1  0  0  0
 16 18  1  0  0  0
M  END
> <minimizedAffinity>
-9.53564

> <CNNscore>
0.1450313479

> <CNNaffinity>
5.4613828659

> <CNN_VS>
0.7920717001

> <CNNaffinity_variance>
0.4467895627

$$$$
[H]OC([H])([H])C([H])([H])N([H])C(=O)[C@@]1([H])O[C@@]([H])(n2c([H])nc3c(N([H])C([H])([H])c4c([H])c([H])c([H])c([H])c4C([H])([H])[H])nc([H])nc32)[C@]([H])(O[H])[C@]1([H])O[H]


 36 39  0  0  0  0  0  0  0  0999 V2000
  -87.1164   31.2962   -0.5782 C   0  0  0  0  0  0  0  0  0  0  0  0
  -88.1563   32.1591   -0.5762 N   0  0  0  0  0  0  0  0  0  0  0  0
  -89.4040   31.7768   -0.8812 C   0  0  0  0  0  0  0  0  0  0  0  0
  -89.6275   30.4945   -1.1989 N   0  0  0  0  0  0  0  0  0  0  0  0
  -88.6417   29.5956   -1.2183 C   0  0  0  0  0  0  0  0  0  0  0  0
  -87.3722   29.9790   -0.9092 C   0  0  0  0  0  0  0  0  0  0  0  0
  -86.5781   28.8961   -1.0023 N   0  0  0  0  0  0  0  0  0  0  0  0
  -87.3181   27.8346   -1.3641 C   0  0  0  0  0  0  0  0  0  0  0  0
  -88.5807   28.2691   -1.4948 N   0  0  0  0  0  0  0  0  0  0  0  0
  -89.6876   27.4515   -1.8697 C   0  0  0  0  0  0  0  0  0  0  0  0
  -90.2570   27.8183   -3.0866 O   0  0  0  0  0  0  0  0  0  0  0  0
  -91.4730   27.1086   -3.0834 C   0  0  0  0  0  0  0  0  0  0  0  0
  -92.0309   27.5439   -1.7330 C   0  0  0  0  0  0  0  0  0  0  0  0
  -93.0821   26.7713   -1.3141 O   0  0  0  0  0  0  0  0  0  0  0  0
  -90.7887   27.3691   -0.8676 C   0  0  0  0  0  0  0  0  0  0  0  0
  -90.8846   26.0880   -0.2990 O   0  0  0  0  0  0  0  0  0  0  0  0
  -93.6189   27.2943   -0.6525 H   0  0  0  0  0  0  0  0  0  0  0  0
  -90.7575   26.1319    0.6871 H   0  0  0  0  0  0  0  0  0  0  0  0
  -92.3317   27.4600   -4.2023 C   0  0  0  0  0  0  0  0  0  0  0  0
  -92.0766   27.0477   -5.3551 O   0  0  0  0  0  0  0  0  0  0  0  0
  -93.4723   28.2745   -4.0104 N   0  0  0  0  0  0  0  0  0  0  0  0
  -93.7035   28.6283   -3.0614 H   0  0  0  0  0  0  0  0  0  0  0  0
  -94.3482   28.6409   -5.1131 C   0  0  0  0  0  0  0  0  0  0  0  0
  -94.0112   30.0083   -5.6064 C   0  0  0  0  0  0  0  0  0  0  0  0
  -92.7076   30.0104   -6.1065 O   0  0  0  0  0  0  0  0  0  0  0  0
  -92.5877   30.7037   -6.8222 H   0  0  0  0  0  0  0  0  0  0  0  0
  -85.7997   31.7280   -0.2690 N   0  0  0  0  0  0  0  0  0  0  0  0
  -85.1752   31.9838   -1.0731 H   0  0  0  0  0  0  0  0  0  0  0  0
  -85.3000   31.8264    1.0665 C   0  0  0  0  0  0  0  0  0  0  0  0
  -82.4990   31.5957    0.6669 C   0  0  0  0  0  0  0  0  0  0  0  0
  -83.2188   30.5211    1.3628 C   0  0  0  0  0  0  0  0  0  0  0  0
  -82.5433   29.4231    1.8009 C   0  0  0  0  0  0  0  0  0  0  0  0
  -83.1912   28.3973    2.4578 C   0  0  0  0  0  0  0  0  0  0  0  0
  -84.5484   28.4648    2.6853 C   0  0  0  0  0  0  0  0  0  0  0  0
  -85.2064   29.5961    2.2264 C   0  0  0  0  0  0  0  0  0  0  0  0
  -84.5962   30.6362    1.5700 C   0  0  0  0  0  0  0  0  0  0  0  0
 30 31  1  0  0  0
 31 32  2  0  0  0
 32 33  1  0  0  0
 33 34  2  0  0  0
 34 35  1  0  0  0
 35 36  2  0  0  0
 36 29  1  0  0  0
 29 27  1  0  0  0
 27  1  1  0  0  0
  1  2  2  0  0  0
  2  3  1  0  0  0
  3  4  2  0  0  0
  4  5  1  0  0  0
  5  6  2  0  0  0
  6  7  1  0  0  0
  7  8  2  0  0  0
  8  9  1  0  0  0
  9 10  1  0  0  0
 10 11  1  0  0  0
 11 12  1  0  0  0
 12 19  1  0  0  0
 19 20  2  0  0  0
 19 21  1  0  0  0
 21 23  1  0  0  0
 23 24  1  0  0  0
 24 25  1  0  0  0
 12 13  1  0  0  0
 13 14  1  0  0  0
 13 15  1  0  0  0
 15 16  1  0  0  0
 36 31  1  0  0  0
  6  1  1  0  0  0
 15 10  1  0  0  0
  9  5  1  0  0  0
 27 28  1  0  0  0
 21 22  1  0  0  0
 25 26  1  0  0  0
 14 17  1  0  0  0
 16 18  1  0  0  0
M  END
> <minimizedAffinity>
-9.25217

> <CNNscore>
0.1232629567

> <CNNaffinity>
5.0722746849

> <CNN_VS>
0.6252235770

> <CNNaffinity_variance>
0.5469850302

$$$$
[H]OC([H])([H])C([H])([H])N([H])C(=O)[C@@]1([H])O[C@@]([H])(n2c([H])nc3c(N([H])C([H])([H])c4c([H])c([H])c([H])c([H])c4C([H])([H])[H])nc([H])nc32)[C@]([H])(O[H])[C@]1([H])O[H]


 36 39  0  0  0  0  0  0  0  0999 V2000
  -86.4859   32.1928   -0.6422 C   0  0  0  0  0  0  0  0  0  0  0  0
  -85.4157   31.5759   -0.0943 N   0  0  0  0  0  0  0  0  0  0  0  0
  -85.4992   30.3620    0.4672 C   0  0  0  0  0  0  0  0  0  0  0  0
  -86.6852   29.7390    0.4859 N   0  0  0  0  0  0  0  0  0  0  0  0
  -87.7778   30.2966   -0.0389 C   0  0  0  0  0  0  0  0  0  0  0  0
  -87.6981   31.5299   -0.6107 C   0  0  0  0  0  0  0  0  0  0  0  0
  -88.9243   31.8591   -1.0580 N   0  0  0  0  0  0  0  0  0  0  0  0
  -89.7792   30.8601   -0.7813 C   0  0  0  0  0  0  0  0  0  0  0  0
  -89.0714   29.9063   -0.1574 N   0  0  0  0  0  0  0  0  0  0  0  0
  -89.6073   28.6696    0.3090 C   0  0  0  0  0  0  0  0  0  0  0  0
  -89.0729   27.5581   -0.3379 O   0  0  0  0  0  0  0  0  0  0  0  0
  -89.9515   26.5269    0.0461 C   0  0  0  0  0  0  0  0  0  0  0  0
  -91.2852   27.1580   -0.3376 C   0  0  0  0  0  0  0  0  0  0  0  0
  -92.3617   26.5026    0.2000 O   0  0  0  0  0  0  0  0  0  0  0  0
  -91.0925   28.5529    0.2452 C   0  0  0  0  0  0  0  0  0  0  0  0
  -91.6712   28.5258    1.5251 O   0  0  0  0  0  0  0  0  0  0  0  0
  -93.1698   26.7111   -0.3503 H   0  0  0  0  0  0  0  0  0  0  0  0
  -92.3044   29.2851    1.6393 H   0  0  0  0  0  0  0  0  0  0  0  0
  -89.6856   25.2759   -0.6446 C   0  0  0  0  0  0  0  0  0  0  0  0
  -88.9287   25.2458   -1.6397 O   0  0  0  0  0  0  0  0  0  0  0  0
  -90.2768   24.0680   -0.2056 N   0  0  0  0  0  0  0  0  0  0  0  0
  -90.9088   24.0693    0.6189 H   0  0  0  0  0  0  0  0  0  0  0  0
  -90.0272   22.8023   -0.8788 C   0  0  0  0  0  0  0  0  0  0  0  0
  -89.4319   21.8205    0.0743 C   0  0  0  0  0  0  0  0  0  0  0  0
  -90.1361   20.6173   -0.0025 O   0  0  0  0  0  0  0  0  0  0  0  0
  -89.5557   19.8338    0.2354 H   0  0  0  0  0  0  0  0  0  0  0  0
  -86.3770   33.4870   -1.2157 N   0  0  0  0  0  0  0  0  0  0  0  0
  -86.4294   34.3086   -0.5645 H   0  0  0  0  0  0  0  0  0  0  0  0
  -86.2028   33.7118   -2.6165 C   0  0  0  0  0  0  0  0  0  0  0  0
  -87.5856   31.9880   -4.3983 C   0  0  0  0  0  0  0  0  0  0  0  0
  -88.0598   33.3659   -4.2149 C   0  0  0  0  0  0  0  0  0  0  0  0
  -89.1478   33.8079   -4.9039 C   0  0  0  0  0  0  0  0  0  0  0  0
  -89.6174   35.0965   -4.7530 C   0  0  0  0  0  0  0  0  0  0  0  0
  -88.9876   35.9699   -3.8934 C   0  0  0  0  0  0  0  0  0  0  0  0
  -87.8828   35.4884   -3.2072 C   0  0  0  0  0  0  0  0  0  0  0  0
  -87.3871   34.2140   -3.3308 C   0  0  0  0  0  0  0  0  0  0  0  0
 30 31  1  0  0  0
 31 32  2  0  0  0
 32 33  1  0  0  0
 33 34  2  0  0  0
 34 35  1  0  0  0
 35 36  2  0  0  0
 36 29  1  0  0  0
 29 27  1  0  0  0
 27  1  1  0  0  0
  1  2  2  0  0  0
  2  3  1  0  0  0
  3  4  2  0  0  0
  4  5  1  0  0  0
  5  6  2  0  0  0
  6  7  1  0  0  0
  7  8  2  0  0  0
  8  9  1  0  0  0
  9 10  1  0  0  0
 10 11  1  0  0  0
 11 12  1  0  0  0
 12 19  1  0  0  0
 19 20  2  0  0  0
 19 21  1  0  0  0
 21 23  1  0  0  0
 23 24  1  0  0  0
 24 25  1  0  0  0
 12 13  1  0  0  0
 13 14  1  0  0  0
 13 15  1  0  0  0
 15 16  1  0  0  0
 36 31  1  0  0  0
  6  1  1  0  0  0
 15 10  1  0  0  0
  9  5  1  0  0  0
 27 28  1  0  0  0
 21 22  1  0  0  0
 25 26  1  0  0  0
 14 17  1  0  0  0
 16 18  1  0  0  0
M  END
> <minimizedAffinity>
-7.66086

> <CNNscore>
0.1070232838

> <CNNaffinity>
5.2303271294

> <CNN_VS>
0.5597667694

> <CNNaffinity_variance>
0.3076381981

$$$$
[H]OC([H])([H])C([H])([H])N([H])C(=O)[C@@]1([H])O[C@@]([H])(n2c([H])nc3c(N([H])C([H])([H])c4c([H])c([H])c([H])c([H])c4C([H])([H])[H])nc([H])nc32)[C@]([H])(O[H])[C@]1([H])O[H]


 36 39  0  0  0  0  0  0  0  0999 V2000
  -86.2641   32.0574   -0.5025 C   0  0  0  0  0  0  0  0  0  0  0  0
  -84.9895   31.8841   -0.0884 N   0  0  0  0  0  0  0  0  0  0  0  0
  -84.5465   30.7151    0.3943 C   0  0  0  0  0  0  0  0  0  0  0  0
  -85.3973   29.6827    0.4685 N   0  0  0  0  0  0  0  0  0  0  0  0
  -86.6675   29.7920    0.0751 C   0  0  0  0  0  0  0  0  0  0  0  0
  -87.1225   30.9778   -0.4161 C   0  0  0  0  0  0  0  0  0  0  0  0
  -88.4206   30.8226   -0.7369 N   0  0  0  0  0  0  0  0  0  0  0  0
  -88.7974   29.5632   -0.4591 C   0  0  0  0  0  0  0  0  0  0  0  0
  -87.7199   28.9371    0.0377 N   0  0  0  0  0  0  0  0  0  0  0  0
  -87.6937   27.5755    0.4617 C   0  0  0  0  0  0  0  0  0  0  0  0
  -88.7088   26.8040   -0.0986 O   0  0  0  0  0  0  0  0  0  0  0  0
  -88.6744   25.6347    0.6851 C   0  0  0  0  0  0  0  0  0  0  0  0
  -88.7602   26.2466    2.0788 C   0  0  0  0  0  0  0  0  0  0  0  0
  -88.4428   25.3592    3.0733 O   0  0  0  0  0  0  0  0  0  0  0  0
  -87.7351   27.3654    1.9373 C   0  0  0  0  0  0  0  0  0  0  0  0
  -86.5233   26.8504    2.4272 O   0  0  0  0  0  0  0  0  0  0  0  0
  -88.8531   25.6772    3.9277 H   0  0  0  0  0  0  0  0  0  0  0  0
  -86.1260   27.4684    3.0986 H   0  0  0  0  0  0  0  0  0  0  0  0
  -89.7685   24.7255    0.3862 C   0  0  0  0  0  0  0  0  0  0  0  0
  -89.6964   23.9389   -0.5833 O   0  0  0  0  0  0  0  0  0  0  0  0
  -90.9358   24.7118    1.1852 N   0  0  0  0  0  0  0  0  0  0  0  0
  -91.0174   25.3565    1.9957 H   0  0  0  0  0  0  0  0  0  0  0  0
  -92.0452   23.8118    0.9079 C   0  0  0  0  0  0  0  0  0  0  0  0
  -92.9643   24.4214   -0.0972 C   0  0  0  0  0  0  0  0  0  0  0  0
  -92.6824   23.8953   -1.3594 O   0  0  0  0  0  0  0  0  0  0  0  0
  -93.4935   23.8983   -1.9504 H   0  0  0  0  0  0  0  0  0  0  0  0
  -86.7155   33.3106   -0.9937 N   0  0  0  0  0  0  0  0  0  0  0  0
  -87.2811   33.9083   -0.3418 H   0  0  0  0  0  0  0  0  0  0  0  0
  -86.4368   33.7820   -2.3140 C   0  0  0  0  0  0  0  0  0  0  0  0
  -88.2913   35.7311   -3.2195 C   0  0  0  0  0  0  0  0  0  0  0  0
  -88.3426   34.3734   -3.7773 C   0  0  0  0  0  0  0  0  0  0  0  0
  -89.2801   34.0577   -4.7128 C   0  0  0  0  0  0  0  0  0  0  0  0
  -89.3535   32.7913   -5.2556 C   0  0  0  0  0  0  0  0  0  0  0  0
  -88.4706   31.8116   -4.8569 C   0  0  0  0  0  0  0  0  0  0  0  0
  -87.5286   32.1658   -3.9027 C   0  0  0  0  0  0  0  0  0  0  0  0
  -87.4245   33.4142   -3.3408 C   0  0  0  0  0  0  0  0  0  0  0  0
 30 31  1  0  0  0
 31 32  2  0  0  0
 32 33  1  0  0  0
 33 34  2  0  0  0
 34 35  1  0  0  0
 35 36  2  0  0  0
 36 29  1  0  0  0
 29 27  1  0  0  0
 27  1  1  0  0  0
  1  2  2  0  0  0
  2  3  1  0  0  0
  3  4  2  0  0  0
  4  5  1  0  0  0
  5  6  2  0  0  0
  6  7  1  0  0  0
  7  8  2  0  0  0
  8  9  1  0  0  0
  9 10  1  0  0  0
 10 11  1  0  0  0
 11 12  1  0  0  0
 12 19  1  0  0  0
 19 20  2  0  0  0
 19 21  1  0  0  0
 21 23  1  0  0  0
 23 24  1  0  0  0
 24 25  1  0  0  0
 12 13  1  0  0  0
 13 14  1  0  0  0
 13 15  1  0  0  0
 15 16  1  0  0  0
 36 31  1  0  0  0
  6  1  1  0  0  0
 15 10  1  0  0  0
  9  5  1  0  0  0
 27 28  1  0  0  0
 21 22  1  0  0  0
 25 26  1  0  0  0
 14 17  1  0  0  0
 16 18  1  0  0  0
M  END
> <minimizedAffinity>
-7.57046

> <CNNscore>
0.0994805470

> <CNNaffinity>
5.4548821449

> <CNN_VS>
0.5426546335

> <CNNaffinity_variance>
0.4232531488

$$$$
[H]OC([H])([H])C([H])([H])N([H])C(=O)[C@@]1([H])O[C@@]([H])(n2c([H])nc3c(N([H])C([H])([H])c4c([H])c([H])c([H])c([H])c4C([H])([H])[H])nc([H])nc32)[C@]([H])(O[H])[C@]1([H])O[H]


 36 39  0  0  0  0  0  0  0  0999 V2000
  -87.9803   26.3685   -0.1725 C   0  0  0  0  0  0  0  0  0  0  0  0
  -88.2652   26.8707   -1.3943 N   0  0  0  0  0  0  0  0  0  0  0  0
  -87.7798   28.0466   -1.8156 C   0  0  0  0  0  0  0  0  0  0  0  0
  -86.9846   28.7481   -0.9967 N   0  0  0  0  0  0  0  0  0  0  0  0
  -86.6672   28.3048    0.2210 C   0  0  0  0  0  0  0  0  0  0  0  0
  -87.1578   27.1105    0.6539 C   0  0  0  0  0  0  0  0  0  0  0  0
  -86.6926   26.8983    1.8991 N   0  0  0  0  0  0  0  0  0  0  0  0
  -85.9176   27.9333    2.2642 C   0  0  0  0  0  0  0  0  0  0  0  0
  -85.9058   28.7912    1.2327 N   0  0  0  0  0  0  0  0  0  0  0  0
  -85.1964   30.0283    1.2117 C   0  0  0  0  0  0  0  0  0  0  0  0
  -85.7613   30.9736    0.3591 O   0  0  0  0  0  0  0  0  0  0  0  0
  -84.7487   31.9474    0.2656 C   0  0  0  0  0  0  0  0  0  0  0  0
  -83.5681   31.0660   -0.1263 C   0  0  0  0  0  0  0  0  0  0  0  0
  -82.3604   31.6998    0.0044 O   0  0  0  0  0  0  0  0  0  0  0  0
  -83.7482   29.9280    0.8712 C   0  0  0  0  0  0  0  0  0  0  0  0
  -82.9291   30.2373    1.9700 O   0  0  0  0  0  0  0  0  0  0  0  0
  -81.6943   31.2420   -0.5838 H   0  0  0  0  0  0  0  0  0  0  0  0
  -82.3453   29.4647    2.2002 H   0  0  0  0  0  0  0  0  0  0  0  0
  -85.0491   32.9781   -0.7143 C   0  0  0  0  0  0  0  0  0  0  0  0
  -84.1837   33.8207   -1.0384 O   0  0  0  0  0  0  0  0  0  0  0  0
  -86.3252   33.0490   -1.3208 N   0  0  0  0  0  0  0  0  0  0  0  0
  -87.0595   32.3595   -1.0668 H   0  0  0  0  0  0  0  0  0  0  0  0
  -86.6518   34.0705   -2.3044 C   0  0  0  0  0  0  0  0  0  0  0  0
  -87.6364   33.5389   -3.2917 C   0  0  0  0  0  0  0  0  0  0  0  0
  -87.0282   32.5450   -4.0609 O   0  0  0  0  0  0  0  0  0  0  0  0
  -87.6963   31.8730   -4.3915 H   0  0  0  0  0  0  0  0  0  0  0  0
  -88.5207   25.1286    0.2591 N   0  0  0  0  0  0  0  0  0  0  0  0
  -87.8813   24.2961    0.2533 H   0  0  0  0  0  0  0  0  0  0  0  0
  -89.8737   24.9712    0.6923 C   0  0  0  0  0  0  0  0  0  0  0  0
  -90.3890   23.3540    2.9678 C   0  0  0  0  0  0  0  0  0  0  0  0
  -90.4720   24.8153    3.0884 C   0  0  0  0  0  0  0  0  0  0  0  0
  -90.8028   25.3814    4.2817 C   0  0  0  0  0  0  0  0  0  0  0  0
  -90.8887   26.7507    4.4266 C   0  0  0  0  0  0  0  0  0  0  0  0
  -90.6389   27.5805    3.3553 C   0  0  0  0  0  0  0  0  0  0  0  0
  -90.3047   26.9722    2.1547 C   0  0  0  0  0  0  0  0  0  0  0  0
  -90.2090   25.6147    1.9724 C   0  0  0  0  0  0  0  0  0  0  0  0
 30 31  1  0  0  0
 31 32  2  0  0  0
 32 33  1  0  0  0
 33 34  2  0  0  0
 34 35  1  0  0  0
 35 36  2  0  0  0
 36 29  1  0  0  0
 29 27  1  0  0  0
 27  1  1  0  0  0
  1  2  2  0  0  0
  2  3  1  0  0  0
  3  4  2  0  0  0
  4  5  1  0  0  0
  5  6  2  0  0  0
  6  7  1  0  0  0
  7  8  2  0  0  0
  8  9  1  0  0  0
  9 10  1  0  0  0
 10 11  1  0  0  0
 11 12  1  0  0  0
 12 19  1  0  0  0
 19 20  2  0  0  0
 19 21  1  0  0  0
 21 23  1  0  0  0
 23 24  1  0  0  0
 24 25  1  0  0  0
 12 13  1  0  0  0
 13 14  1  0  0  0
 13 15  1  0  0  0
 15 16  1  0  0  0
 36 31  1  0  0  0
  6  1  1  0  0  0
 15 10  1  0  0  0
  9  5  1  0  0  0
 27 28  1  0  0  0
 21 22  1  0  0  0
 25 26  1  0  0  0
 14 17  1  0  0  0
 16 18  1  0  0  0
M  END
> <minimizedAffinity>
-8.30343

> <CNNscore>
0.0982631296

> <CNNaffinity>
5.7662181854

> <CNN_VS>
0.5666066408

> <CNNaffinity_variance>
0.2413103878

$$$$
[H]c1c([H])c([H])c(S(=O)(=O)c2c([H])c([H])c3c(c2[H])c2c(n3[H])C([H])([H])C([H])([H])C([H])(N([H])[H])C2([H])[H])c([H])c1[H]


 26 29  0  0  0  0  0  0  0  0999 V2000
  -90.2458   32.5957   -2.6475 N   0  0  0  0  0  0  0  0  0  0  0  0
  -88.7867   32.6049   -2.5790 C   0  0  0  0  0  0  0  0  0  0  0  0
  -88.2890   33.8066   -3.2964 C   0  0  0  0  0  0  0  0  0  0  0  0
  -87.0613   34.4361   -2.7215 C   0  0  0  0  0  0  0  0  0  0  0  0
  -86.3018   33.5675   -1.8060 C   0  0  0  0  0  0  0  0  0  0  0  0
  -84.9966   33.5004   -1.5433 N   0  0  0  0  0  0  0  0  0  0  0  0
  -84.7568   32.5556   -0.6369 C   0  0  0  0  0  0  0  0  0  0  0  0
  -83.5889   32.0857   -0.0247 C   0  0  0  0  0  0  0  0  0  0  0  0
  -83.7250   31.0670    0.8919 C   0  0  0  0  0  0  0  0  0  0  0  0
  -84.9282   30.5088    1.2203 C   0  0  0  0  0  0  0  0  0  0  0  0
  -86.0745   30.9757    0.6142 C   0  0  0  0  0  0  0  0  0  0  0  0
  -85.9581   31.9923   -0.3034 C   0  0  0  0  0  0  0  0  0  0  0  0
  -86.9288   32.6273   -1.0372 C   0  0  0  0  0  0  0  0  0  0  0  0
  -88.3996   32.5031   -1.1487 C   0  0  0  0  0  0  0  0  0  0  0  0
  -90.6264   32.0636   -1.8521 H   0  0  0  0  0  0  0  0  0  0  0  0
  -90.5762   32.2920   -3.5800 H   0  0  0  0  0  0  0  0  0  0  0  0
  -84.2291   34.0869   -1.9649 H   0  0  0  0  0  0  0  0  0  0  0  0
  -85.0401   29.2164    2.3925 S   0  0  0  0  0  0  0  0  0  0  0  0
  -85.3428   29.8102    3.7262 O   0  0  0  0  0  0  0  0  0  0  0  0
  -83.7180   28.5096    2.4529 O   0  0  0  0  0  0  0  0  0  0  0  0
  -86.3061   28.1330    1.8595 C   0  0  0  0  0  0  0  0  0  0  0  0
  -87.4462   28.0007    2.6127 C   0  0  0  0  0  0  0  0  0  0  0  0
  -88.4960   27.1695    2.2689 C   0  0  0  0  0  0  0  0  0  0  0  0
  -88.3633   26.4445    1.0989 C   0  0  0  0  0  0  0  0  0  0  0  0
  -87.2233   26.5581    0.3182 C   0  0  0  0  0  0  0  0  0  0  0  0
  -86.2082   27.3985    0.7044 C   0  0  0  0  0  0  0  0  0  0  0  0
  1  2  1  0  0  0
  2  3  1  0  0  0
  3  4  1  0  0  0
  4  5  1  0  0  0
  5  6  1  0  0  0
  6  7  1  0  0  0
  7  8  2  0  0  0
  8  9  1  0  0  0
  9 10  2  0  0  0
 10 18  1  0  0  0
 18 19  2  0  0  0
 18 20  2  0  0  0
 18 21  1  0  0  0
 21 22  2  0  0  0
 22 23  1  0  0  0
 23 24  2  0  0  0
 24 25  1  0  0  0
 25 26  2  0  0  0
 10 11  1  0  0  0
 11 12  2  0  0  0
 12 13  1  0  0  0
 13 14  1  0  0  0
 14  2  1  0  0  0
 13  5  2  0  0  0
 12  7  1  0  0  0
 26 21  1  0  0  0
  1 15  1  0  0  0
  1 16  1  0  0  0
  6 17  1  0  0  0
M  END
> <minimizedAffinity>
-8.85213

> <CNNscore>
0.6736115217

> <CNNaffinity>
6.5131902695

> <CNN_VS>
4.3873600960

> <CNNaffinity_variance>
0.2232324183

$$$$
[H]c1c([H])c([H])c(S(=O)(=O)c2c([H])c([H])c3c(c2[H])c2c(n3[H])C([H])([H])C([H])([H])C([H])(N([H])[H])C2([H])[H])c([H])c1[H]


 26 29  0  0  0  0  0  0  0  0999 V2000
  -90.3707   27.3182    1.3778 N   0  0  0  0  0  0  0  0  0  0  0  0
  -89.0221   27.6784    1.8084 C   0  0  0  0  0  0  0  0  0  0  0  0
  -88.3724   26.4716    2.3809 C   0  0  0  0  0  0  0  0  0  0  0  0
  -86.9021   26.3563    2.1376 C   0  0  0  0  0  0  0  0  0  0  0  0
  -86.2490   27.6151    1.7398 C   0  0  0  0  0  0  0  0  0  0  0  0
  -85.0138   28.0674    1.9563 N   0  0  0  0  0  0  0  0  0  0  0  0
  -84.8604   29.2698    1.4065 C   0  0  0  0  0  0  0  0  0  0  0  0
  -83.7874   30.1666    1.3410 C   0  0  0  0  0  0  0  0  0  0  0  0
  -83.9971   31.3508    0.6699 C   0  0  0  0  0  0  0  0  0  0  0  0
  -85.1846   31.6781    0.0785 C   0  0  0  0  0  0  0  0  0  0  0  0
  -86.2372   30.7910    0.1463 C   0  0  0  0  0  0  0  0  0  0  0  0
  -86.0464   29.6039    0.8121 C   0  0  0  0  0  0  0  0  0  0  0  0
  -86.9189   28.5651    1.0210 C   0  0  0  0  0  0  0  0  0  0  0  0
  -88.3264   28.2955    0.6503 C   0  0  0  0  0  0  0  0  0  0  0  0
  -90.6785   27.9582    0.6321 H   0  0  0  0  0  0  0  0  0  0  0  0
  -91.0140   27.2390    2.1847 H   0  0  0  0  0  0  0  0  0  0  0  0
  -84.2382   27.5820    2.4793 H   0  0  0  0  0  0  0  0  0  0  0  0
  -85.3928   33.1976   -0.7608 S   0  0  0  0  0  0  0  0  0  0  0  0
  -84.1735   33.4593   -1.5781 O   0  0  0  0  0  0  0  0  0  0  0  0
  -85.5510   34.2885    0.2570 O   0  0  0  0  0  0  0  0  0  0  0  0
  -86.8252   33.0557   -1.7551 C   0  0  0  0  0  0  0  0  0  0  0  0
  -88.0640   33.0626   -1.1635 C   0  0  0  0  0  0  0  0  0  0  0  0
  -89.2477   32.9556   -1.8695 C   0  0  0  0  0  0  0  0  0  0  0  0
  -89.1486   32.8364   -3.2436 C   0  0  0  0  0  0  0  0  0  0  0  0
  -87.9109   32.8266   -3.8684 C   0  0  0  0  0  0  0  0  0  0  0  0
  -86.7642   32.9359   -3.1208 C   0  0  0  0  0  0  0  0  0  0  0  0
  1  2  1  0  0  0
  2  3  1  0  0  0
  3  4  1  0  0  0
  4  5  1  0  0  0
  5  6  1  0  0  0
  6  7  1  0  0  0
  7  8  2  0  0  0
  8  9  1  0  0  0
  9 10  2  0  0  0
 10 18  1  0  0  0
 18 19  2  0  0  0
 18 20  2  0  0  0
 18 21  1  0  0  0
 21 22  2  0  0  0
 22 23  1  0  0  0
 23 24  2  0  0  0
 24 25  1  0  0  0
 25 26  2  0  0  0
 10 11  1  0  0  0
 11 12  2  0  0  0
 12 13  1  0  0  0
 13 14  1  0  0  0
 14  2  1  0  0  0
 13  5  2  0  0  0
 12  7  1  0  0  0
 26 21  1  0  0  0
  1 15  1  0  0  0
  1 16  1  0  0  0
  6 17  1  0  0  0
M  END
> <minimizedAffinity>
-8.13227

> <CNNscore>
0.4309372902

> <CNNaffinity>
6.0790548325

> <CNN_VS>
2.6196913719

> <CNNaffinity_variance>
0.1007289663

$$$$
[H]c1c([H])c([H])c(S(=O)(=O)c2c([H])c([H])c3c(c2[H])c2c(n3[H])C([H])([H])C([H])([H])C([H])(N([H])[H])C2([H])[H])c([H])c1[H]


 26 29  0  0  0  0  0  0  0  0999 V2000
  -90.1502   30.0350   -3.6277 N   0  0  0  0  0  0  0  0  0  0  0  0
  -89.8739   29.1030   -2.5374 C   0  0  0  0  0  0  0  0  0  0  0  0
  -90.4803   27.7898   -2.8751 C   0  0  0  0  0  0  0  0  0  0  0  0
  -89.7194   26.5910   -2.4084 C   0  0  0  0  0  0  0  0  0  0  0  0
  -88.7286   26.8696   -1.3547 C   0  0  0  0  0  0  0  0  0  0  0  0
  -88.2842   26.1159   -0.3489 N   0  0  0  0  0  0  0  0  0  0  0  0
  -87.3786   26.7836    0.3622 C   0  0  0  0  0  0  0  0  0  0  0  0
  -86.6188   26.4635    1.4936 C   0  0  0  0  0  0  0  0  0  0  0  0
  -85.7587   27.4290    1.9677 C   0  0  0  0  0  0  0  0  0  0  0  0
  -85.6206   28.6598    1.3906 C   0  0  0  0  0  0  0  0  0  0  0  0
  -86.3713   28.9689    0.2769 C   0  0  0  0  0  0  0  0  0  0  0  0
  -87.2352   28.0177   -0.2106 C   0  0  0  0  0  0  0  0  0  0  0  0
  -88.0827   28.0723   -1.2889 C   0  0  0  0  0  0  0  0  0  0  0  0
  -88.4063   29.0945   -2.3095 C   0  0  0  0  0  0  0  0  0  0  0  0
  -89.4319   30.7728   -3.6428 H   0  0  0  0  0  0  0  0  0  0  0  0
  -91.1282   30.3720   -3.5951 H   0  0  0  0  0  0  0  0  0  0  0  0
  -88.5760   25.1315   -0.1109 H   0  0  0  0  0  0  0  0  0  0  0  0
  -84.5116   29.8467    2.0372 S   0  0  0  0  0  0  0  0  0  0  0  0
  -83.1884   29.1934    2.2502 O   0  0  0  0  0  0  0  0  0  0  0  0
  -85.0433   30.3307    3.3540 O   0  0  0  0  0  0  0  0  0  0  0  0
  -84.4127   31.1565    0.8816 C   0  0  0  0  0  0  0  0  0  0  0  0
  -85.5501   31.8446    0.5387 C   0  0  0  0  0  0  0  0  0  0  0  0
  -85.5658   32.8916   -0.3640 C   0  0  0  0  0  0  0  0  0  0  0  0
  -84.3571   33.2428   -0.9366 C   0  0  0  0  0  0  0  0  0  0  0  0
  -83.1925   32.5657   -0.6091 C   0  0  0  0  0  0  0  0  0  0  0  0
  -83.2308   31.5319    0.2941 C   0  0  0  0  0  0  0  0  0  0  0  0
  1  2  1  0  0  0
  2  3  1  0  0  0
  3  4  1  0  0  0
  4  5  1  0  0  0
  5  6  1  0  0  0
  6  7  1  0  0  0
  7  8  2  0  0  0
  8  9  1  0  0  0
  9 10  2  0  0  0
 10 18  1  0  0  0
 18 19  2  0  0  0
 18 20  2  0  0  0
 18 21  1  0  0  0
 21 22  2  0  0  0
 22 23  1  0  0  0
 23 24  2  0  0  0
 24 25  1  0  0  0
 25 26  2  0  0  0
 10 11  1  0  0  0
 11 12  2  0  0  0
 12 13  1  0  0  0
 13 14  1  0  0  0
 14  2  1  0  0  0
 13  5  2  0  0  0
 12  7  1  0  0  0
 26 21  1  0  0  0
  1 15  1  0  0  0
  1 16  1  0  0  0
  6 17  1  0  0  0
M  END
> <minimizedAffinity>
-9.06030

> <CNNscore>
0.4247277677

> <CNNaffinity>
6.0360345840

> <CNN_VS>
2.5636715889

> <CNNaffinity_variance>
0.1584680527

$$$$
[H]c1c([H])c([H])c(S(=O)(=O)c2c([H])c([H])c3c(c2[H])c2c(n3[H])C([H])([H])C([H])([H])C([H])(N([H])[H])C2([H])[H])c([H])c1[H]


 26 29  0  0  0  0  0  0  0  0999 V2000
  -82.6035   29.2219    2.0244 N   0  0  0  0  0  0  0  0  0  0  0  0
  -83.5901   30.2379    1.6662 C   0  0  0  0  0  0  0  0  0  0  0  0
  -82.8695   31.4659    1.2435 C   0  0  0  0  0  0  0  0  0  0  0  0
  -83.5247   32.2536    0.1552 C   0  0  0  0  0  0  0  0  0  0  0  0
  -84.9496   31.9421   -0.0501 C   0  0  0  0  0  0  0  0  0  0  0  0
  -85.9628   32.7055   -0.4600 N   0  0  0  0  0  0  0  0  0  0  0  0
  -87.0882   31.9958   -0.4986 C   0  0  0  0  0  0  0  0  0  0  0  0
  -88.4077   32.3053   -0.8493 C   0  0  0  0  0  0  0  0  0  0  0  0
  -89.3353   31.2908   -0.7662 C   0  0  0  0  0  0  0  0  0  0  0  0
  -89.0259   30.0221   -0.3640 C   0  0  0  0  0  0  0  0  0  0  0  0
  -87.7251   29.7236   -0.0201 C   0  0  0  0  0  0  0  0  0  0  0  0
  -86.7854   30.7236   -0.0969 C   0  0  0  0  0  0  0  0  0  0  0  0
  -85.4426   30.6892    0.1849 C   0  0  0  0  0  0  0  0  0  0  0  0
  -84.5024   29.6466    0.6543 C   0  0  0  0  0  0  0  0  0  0  0  0
  -83.0148   28.2846    1.9107 H   0  0  0  0  0  0  0  0  0  0  0  0
  -82.1888   29.4120    2.9534 H   0  0  0  0  0  0  0  0  0  0  0  0
  -85.9280   33.7248   -0.7256 H   0  0  0  0  0  0  0  0  0  0  0  0
  -90.2467   28.7736   -0.2779 S   0  0  0  0  0  0  0  0  0  0  0  0
  -89.9141   27.7150   -1.2738 O   0  0  0  0  0  0  0  0  0  0  0  0
  -91.5754   29.3791   -0.6230 O   0  0  0  0  0  0  0  0  0  0  0  0
  -90.2470   28.1522    1.3575 C   0  0  0  0  0  0  0  0  0  0  0  0
  -91.0027   28.7759    2.3191 C   0  0  0  0  0  0  0  0  0  0  0  0
  -91.0630   28.3549    3.6345 C   0  0  0  0  0  0  0  0  0  0  0  0
  -90.3121   27.2438    3.9714 C   0  0  0  0  0  0  0  0  0  0  0  0
  -89.5396   26.5937    3.0212 C   0  0  0  0  0  0  0  0  0  0  0  0
  -89.5142   27.0524    1.7270 C   0  0  0  0  0  0  0  0  0  0  0  0
  1  2  1  0  0  0
  2  3  1  0  0  0
  3  4  1  0  0  0
  4  5  1  0  0  0
  5  6  1  0  0  0
  6  7  1  0  0  0
  7  8  2  0  0  0
  8  9  1  0  0  0
  9 10  2  0  0  0
 10 18  1  0  0  0
 18 19  2  0  0  0
 18 20  2  0  0  0
 18 21  1  0  0  0
 21 22  2  0  0  0
 22 23  1  0  0  0
 23 24  2  0  0  0
 24 25  1  0  0  0
 25 26  2  0  0  0
 10 11  1  0  0  0
 11 12  2  0  0  0
 12 13  1  0  0  0
 13 14  1  0  0  0
 14  2  1  0  0  0
 13  5  2  0  0  0
 12  7  1  0  0  0
 26 21  1  0  0  0
  1 15  1  0  0  0
  1 16  1  0  0  0
  6 17  1  0  0  0
M  END
> <minimizedAffinity>
-9.30876

> <CNNscore>
0.3944506347

> <CNNaffinity>
6.3440437317

> <CNN_VS>
2.5024120808

> <CNNaffinity_variance>
0.0794286281

$$$$
[H]c1c([H])c([H])c(S(=O)(=O)c2c([H])c([H])c3c(c2[H])c2c(n3[H])C([H])([H])C([H])([H])C([H])(N([H])[H])C2([H])[H])c([H])c1[H]


 26 29  0  0  0  0  0  0  0  0999 V2000
  -85.4742   26.7965    2.5350 N   0  0  0  0  0  0  0  0  0  0  0  0
  -84.8348   28.1044    2.4146 C   0  0  0  0  0  0  0  0  0  0  0  0
  -83.3983   27.9603    2.7635 C   0  0  0  0  0  0  0  0  0  0  0  0
  -82.4595   28.8350    1.9968 C   0  0  0  0  0  0  0  0  0  0  0  0
  -83.1020   29.9761    1.3227 C   0  0  0  0  0  0  0  0  0  0  0  0
  -82.6463   31.1970    1.0414 N   0  0  0  0  0  0  0  0  0  0  0  0
  -83.5829   31.9055    0.4150 C   0  0  0  0  0  0  0  0  0  0  0  0
  -83.6237   33.2108   -0.0893 C   0  0  0  0  0  0  0  0  0  0  0  0
  -84.7937   33.6161   -0.6922 C   0  0  0  0  0  0  0  0  0  0  0  0
  -85.8922   32.8128   -0.8149 C   0  0  0  0  0  0  0  0  0  0  0  0
  -85.8458   31.5287   -0.3165 C   0  0  0  0  0  0  0  0  0  0  0  0
  -84.6863   31.1065    0.2886 C   0  0  0  0  0  0  0  0  0  0  0  0
  -84.3849   29.8947    0.8584 C   0  0  0  0  0  0  0  0  0  0  0  0
  -85.1171   28.6229    1.0517 C   0  0  0  0  0  0  0  0  0  0  0  0
  -86.3042   26.7595    1.9265 H   0  0  0  0  0  0  0  0  0  0  0  0
  -85.6425   26.5505    3.5261 H   0  0  0  0  0  0  0  0  0  0  0  0
  -81.6935   31.5898    1.2617 H   0  0  0  0  0  0  0  0  0  0  0  0
  -87.3517   33.3823   -1.5909 S   0  0  0  0  0  0  0  0  0  0  0  0
  -87.0891   34.7343   -2.1619 O   0  0  0  0  0  0  0  0  0  0  0  0
  -88.4350   33.4823   -0.5576 O   0  0  0  0  0  0  0  0  0  0  0  0
  -87.7735   32.2223   -2.8308 C   0  0  0  0  0  0  0  0  0  0  0  0
  -87.9629   30.9059   -2.4906 C   0  0  0  0  0  0  0  0  0  0  0  0
  -88.2974   29.9223   -3.4027 C   0  0  0  0  0  0  0  0  0  0  0  0
  -88.4425   30.3141   -4.7209 C   0  0  0  0  0  0  0  0  0  0  0  0
  -88.2575   31.6366   -5.0934 C   0  0  0  0  0  0  0  0  0  0  0  0
  -87.9256   32.5757   -4.1480 C   0  0  0  0  0  0  0  0  0  0  0  0
  1  2  1  0  0  0
  2  3  1  0  0  0
  3  4  1  0  0  0
  4  5  1  0  0  0
  5  6  1  0  0  0
  6  7  1  0  0  0
  7  8  2  0  0  0
  8  9  1  0  0  0
  9 10  2  0  0  0
 10 18  1  0  0  0
 18 19  2  0  0  0
 18 20  2  0  0  0
 18 21  1  0  0  0
 21 22  2  0  0  0
 22 23  1  0  0  0
 23 24  2  0  0  0
 24 25  1  0  0  0
 25 26  2  0  0  0
 10 11  1  0  0  0
 11 12  2  0  0  0
 12 13  1  0  0  0
 13 14  1  0  0  0
 14  2  1  0  0  0
 13  5  2  0  0  0
 12  7  1  0  0  0
 26 21  1  0  0  0
  1 15  1  0  0  0
  1 16  1  0  0  0
  6 17  1  0  0  0
M  END
> <minimizedAffinity>
-8.10591

> <CNNscore>
0.3310415149

> <CNNaffinity>
6.3507819176

> <CNN_VS>
2.1023724079

> <CNNaffinity_variance>
0.2762557566

$$$$
[H]c1c([H])c([H])c(S(=O)(=O)c2c([H])c([H])c3c(c2[H])c2c(n3[H])C([H])([H])C([H])([H])C([H])(N([H])[H])C2([H])[H])c([H])c1[H]


 26 29  0  0  0  0  0  0  0  0999 V2000
  -85.4259   26.6026    2.0982 N   0  0  0  0  0  0  0  0  0  0  0  0
  -85.2700   28.0544    2.0554 C   0  0  0  0  0  0  0  0  0  0  0  0
  -83.9549   28.4046    2.6504 C   0  0  0  0  0  0  0  0  0  0  0  0
  -83.2621   29.5770    2.0344 C   0  0  0  0  0  0  0  0  0  0  0  0
  -84.1357   30.4482    1.2298 C   0  0  0  0  0  0  0  0  0  0  0  0
  -84.0915   31.7605    0.9992 N   0  0  0  0  0  0  0  0  0  0  0  0
  -85.0942   32.1225    0.2024 C   0  0  0  0  0  0  0  0  0  0  0  0
  -85.4990   33.3499   -0.3356 C   0  0  0  0  0  0  0  0  0  0  0  0
  -86.6157   33.3460   -1.1416 C   0  0  0  0  0  0  0  0  0  0  0  0
  -87.3287   32.2168   -1.4306 C   0  0  0  0  0  0  0  0  0  0  0  0
  -86.9251   31.0114   -0.8980 C   0  0  0  0  0  0  0  0  0  0  0  0
  -85.8126   30.9958   -0.0913 C   0  0  0  0  0  0  0  0  0  0  0  0
  -85.2111   29.9440    0.5536 C   0  0  0  0  0  0  0  0  0  0  0  0
  -85.4777   28.4912    0.6512 C   0  0  0  0  0  0  0  0  0  0  0  0
  -86.0746   26.3021    1.3569 H   0  0  0  0  0  0  0  0  0  0  0  0
  -85.6648   26.2784    3.0516 H   0  0  0  0  0  0  0  0  0  0  0  0
  -83.3868   32.4509    1.3701 H   0  0  0  0  0  0  0  0  0  0  0  0
  -88.7399   32.2726   -2.4613 S   0  0  0  0  0  0  0  0  0  0  0  0
  -89.9573   32.2298   -1.6016 O   0  0  0  0  0  0  0  0  0  0  0  0
  -88.7243   31.0707   -3.3591 O   0  0  0  0  0  0  0  0  0  0  0  0
  -88.6514   33.7513   -3.3920 C   0  0  0  0  0  0  0  0  0  0  0  0
  -89.4946   34.7922   -3.0918 C   0  0  0  0  0  0  0  0  0  0  0  0
  -89.4948   35.9952   -3.7729 C   0  0  0  0  0  0  0  0  0  0  0  0
  -88.5868   36.1293   -4.8072 C   0  0  0  0  0  0  0  0  0  0  0  0
  -87.7231   35.0949   -5.1327 C   0  0  0  0  0  0  0  0  0  0  0  0
  -87.7632   33.9190   -4.4245 C   0  0  0  0  0  0  0  0  0  0  0  0
  1  2  1  0  0  0
  2  3  1  0  0  0
  3  4  1  0  0  0
  4  5  1  0  0  0
  5  6  1  0  0  0
  6  7  1  0  0  0
  7  8  2  0  0  0
  8  9  1  0  0  0
  9 10  2  0  0  0
 10 18  1  0  0  0
 18 19  2  0  0  0
 18 20  2  0  0  0
 18 21  1  0  0  0
 21 22  2  0  0  0
 22 23  1  0  0  0
 23 24  2  0  0  0
 24 25  1  0  0  0
 25 26  2  0  0  0
 10 11  1  0  0  0
 11 12  2  0  0  0
 12 13  1  0  0  0
 13 14  1  0  0  0
 14  2  1  0  0  0
 13  5  2  0  0  0
 12  7  1  0  0  0
 26 21  1  0  0  0
  1 15  1  0  0  0
  1 16  1  0  0  0
  6 17  1  0  0  0
M  END
> <minimizedAffinity>
-8.97078

> <CNNscore>
0.3176266551

> <CNNaffinity>
6.0608801842

> <CNN_VS>
1.9250971079

> <CNNaffinity_variance>
0.1340487301

$$$$
[H]c1c([H])c([H])c(S(=O)(=O)c2c([H])c([H])c3c(c2[H])c2c(n3[H])C([H])([H])C([H])([H])C([H])(N([H])[H])C2([H])[H])c([H])c1[H]


 26 29  0  0  0  0  0  0  0  0999 V2000
  -90.9895   24.2236    3.9054 N   0  0  0  0  0  0  0  0  0  0  0  0
  -90.3492   24.6164    2.6526 C   0  0  0  0  0  0  0  0  0  0  0  0
  -91.3071   24.3850    1.5412 C   0  0  0  0  0  0  0  0  0  0  0  0
  -91.2395   25.3694    0.4186 C   0  0  0  0  0  0  0  0  0  0  0  0
  -89.9965   26.1583    0.3729 C   0  0  0  0  0  0  0  0  0  0  0  0
  -89.3259   26.6776   -0.6556 N   0  0  0  0  0  0  0  0  0  0  0  0
  -88.2441   27.3209   -0.2229 C   0  0  0  0  0  0  0  0  0  0  0  0
  -87.2226   28.0264   -0.8699 C   0  0  0  0  0  0  0  0  0  0  0  0
  -86.2380   28.5751   -0.0787 C   0  0  0  0  0  0  0  0  0  0  0  0
  -86.2187   28.4607    1.2828 C   0  0  0  0  0  0  0  0  0  0  0  0
  -87.2271   27.7650    1.9140 C   0  0  0  0  0  0  0  0  0  0  0  0
  -88.2186   27.2104    1.1405 C   0  0  0  0  0  0  0  0  0  0  0  0
  -89.3189   26.4804    1.5153 C   0  0  0  0  0  0  0  0  0  0  0  0
  -89.8689   26.0133    2.8077 C   0  0  0  0  0  0  0  0  0  0  0  0
  -90.5616   24.7372    4.6888 H   0  0  0  0  0  0  0  0  0  0  0  0
  -91.0088   23.1942    4.0108 H   0  0  0  0  0  0  0  0  0  0  0  0
  -89.5752   26.6150   -1.6777 H   0  0  0  0  0  0  0  0  0  0  0  0
  -84.9415   29.1791    2.2365 S   0  0  0  0  0  0  0  0  0  0  0  0
  -83.9150   28.1351    2.5182 O   0  0  0  0  0  0  0  0  0  0  0  0
  -85.5255   29.6624    3.5313 O   0  0  0  0  0  0  0  0  0  0  0  0
  -84.2810   30.5092    1.3117 C   0  0  0  0  0  0  0  0  0  0  0  0
  -85.1224   31.4758    0.8194 C   0  0  0  0  0  0  0  0  0  0  0  0
  -84.6890   32.5603    0.0796 C   0  0  0  0  0  0  0  0  0  0  0  0
  -83.3306   32.6507   -0.1621 C   0  0  0  0  0  0  0  0  0  0  0  0
  -82.4572   31.6893    0.3227 C   0  0  0  0  0  0  0  0  0  0  0  0
  -82.9389   30.6306    1.0528 C   0  0  0  0  0  0  0  0  0  0  0  0
  1  2  1  0  0  0
  2  3  1  0  0  0
  3  4  1  0  0  0
  4  5  1  0  0  0
  5  6  1  0  0  0
  6  7  1  0  0  0
  7  8  2  0  0  0
  8  9  1  0  0  0
  9 10  2  0  0  0
 10 18  1  0  0  0
 18 19  2  0  0  0
 18 20  2  0  0  0
 18 21  1  0  0  0
 21 22  2  0  0  0
 22 23  1  0  0  0
 23 24  2  0  0  0
 24 25  1  0  0  0
 25 26  2  0  0  0
 10 11  1  0  0  0
 11 12  2  0  0  0
 12 13  1  0  0  0
 13 14  1  0  0  0
 14  2  1  0  0  0
 13  5  2  0  0  0
 12  7  1  0  0  0
 26 21  1  0  0  0
  1 15  1  0  0  0
  1 16  1  0  0  0
  6 17  1  0  0  0
M  END
> <minimizedAffinity>
-9.05154

> <CNNscore>
0.2959369719

> <CNNaffinity>
5.9185280800

> <CNN_VS>
1.7515113354

> <CNNaffinity_variance>
0.2525964677

$$$$
[H]c1c([H])c([H])c(S(=O)(=O)c2c([H])c([H])c3c(c2[H])c2c(n3[H])C([H])([H])C([H])([H])C([H])(N([H])[H])C2([H])[H])c([H])c1[H]


 26 29  0  0  0  0  0  0  0  0999 V2000
  -84.6183   33.6489   -1.3434 N   0  0  0  0  0  0  0  0  0  0  0  0
  -84.1581   32.3952   -0.7514 C   0  0  0  0  0  0  0  0  0  0  0  0
  -82.8464   32.6366   -0.0977 C   0  0  0  0  0  0  0  0  0  0  0  0
  -82.5960   31.8528    1.1501 C   0  0  0  0  0  0  0  0  0  0  0  0
  -83.4755   30.6841    1.3233 C   0  0  0  0  0  0  0  0  0  0  0  0
  -83.2628   29.5075    1.9130 N   0  0  0  0  0  0  0  0  0  0  0  0
  -84.3522   28.7472    1.8309 C   0  0  0  0  0  0  0  0  0  0  0  0
  -84.6579   27.4552    2.2748 C   0  0  0  0  0  0  0  0  0  0  0  0
  -85.9215   26.9793    2.0038 C   0  0  0  0  0  0  0  0  0  0  0  0
  -86.8678   27.7019    1.3336 C   0  0  0  0  0  0  0  0  0  0  0  0
  -86.5608   28.9733    0.8991 C   0  0  0  0  0  0  0  0  0  0  0  0
  -85.3044   29.4652    1.1605 C   0  0  0  0  0  0  0  0  0  0  0  0
  -84.7545   30.6817    0.8415 C   0  0  0  0  0  0  0  0  0  0  0  0
  -85.2365   31.8907    0.1366 C   0  0  0  0  0  0  0  0  0  0  0  0
  -85.6453   33.6392   -1.4198 H   0  0  0  0  0  0  0  0  0  0  0  0
  -84.1125   33.8574   -2.2218 H   0  0  0  0  0  0  0  0  0  0  0  0
  -82.3802   29.1810    2.3876 H   0  0  0  0  0  0  0  0  0  0  0  0
  -88.4571   27.0452    1.0179 S   0  0  0  0  0  0  0  0  0  0  0  0
  -88.3061   25.8147    0.1895 O   0  0  0  0  0  0  0  0  0  0  0  0
  -89.2521   28.0627    0.2539 O   0  0  0  0  0  0  0  0  0  0  0  0
  -89.1996   26.7021    2.5644 C   0  0  0  0  0  0  0  0  0  0  0  0
  -89.3975   27.7219    3.4619 C   0  0  0  0  0  0  0  0  0  0  0  0
  -89.9757   27.5433    4.7048 C   0  0  0  0  0  0  0  0  0  0  0  0
  -90.3658   26.2584    5.0351 C   0  0  0  0  0  0  0  0  0  0  0  0
  -90.1783   25.2091    4.1486 C   0  0  0  0  0  0  0  0  0  0  0  0
  -89.5987   25.4398    2.9252 C   0  0  0  0  0  0  0  0  0  0  0  0
  1  2  1  0  0  0
  2  3  1  0  0  0
  3  4  1  0  0  0
  4  5  1  0  0  0
  5  6  1  0  0  0
  6  7  1  0  0  0
  7  8  2  0  0  0
  8  9  1  0  0  0
  9 10  2  0  0  0
 10 18  1  0  0  0
 18 19  2  0  0  0
 18 20  2  0  0  0
 18 21  1  0  0  0
 21 22  2  0  0  0
 22 23  1  0  0  0
 23 24  2  0  0  0
 24 25  1  0  0  0
 25 26  2  0  0  0
 10 11  1  0  0  0
 11 12  2  0  0  0
 12 13  1  0  0  0
 13 14  1  0  0  0
 14  2  1  0  0  0
 13  5  2  0  0  0
 12  7  1  0  0  0
 26 21  1  0  0  0
  1 15  1  0  0  0
  1 16  1  0  0  0
  6 17  1  0  0  0
M  END
> <minimizedAffinity>
-9.44820

> <CNNscore>
0.2390161157

> <CNNaffinity>
6.1639876366

> <CNN_VS>
1.4732923508

> <CNNaffinity_variance>
0.1384089440

$$$$
[H]c1c([H])c([H])c(S(=O)(=O)c2c([H])c([H])c3c(c2[H])c2c(n3[H])C([H])([H])C([H])([H])C([H])(N([H])[H])C2([H])[H])c([H])c1[H]


 26 29  0  0  0  0  0  0  0  0999 V2000
  -82.4717   32.0479    0.5380 N   0  0  0  0  0  0  0  0  0  0  0  0
  -83.1735   30.7668    0.5324 C   0  0  0  0  0  0  0  0  0  0  0  0
  -82.5928   29.9069    1.5952 C   0  0  0  0  0  0  0  0  0  0  0  0
  -83.5580   28.9991    2.2868 C   0  0  0  0  0  0  0  0  0  0  0  0
  -84.8227   28.7874    1.5622 C   0  0  0  0  0  0  0  0  0  0  0  0
  -85.6395   27.7349    1.5150 N   0  0  0  0  0  0  0  0  0  0  0  0
  -86.6778   27.9924    0.7229 C   0  0  0  0  0  0  0  0  0  0  0  0
  -87.7991   27.2487    0.3363 C   0  0  0  0  0  0  0  0  0  0  0  0
  -88.6910   27.8545   -0.5205 C   0  0  0  0  0  0  0  0  0  0  0  0
  -88.5286   29.1244   -0.9979 C   0  0  0  0  0  0  0  0  0  0  0  0
  -87.4226   29.8515   -0.6136 C   0  0  0  0  0  0  0  0  0  0  0  0
  -86.5215   29.2633    0.2413 C   0  0  0  0  0  0  0  0  0  0  0  0
  -85.3568   29.7631    0.7680 C   0  0  0  0  0  0  0  0  0  0  0  0
  -84.6272   31.0460    0.6534 C   0  0  0  0  0  0  0  0  0  0  0  0
  -83.0823   32.7789    0.1465 H   0  0  0  0  0  0  0  0  0  0  0  0
  -81.5397   31.9677    0.0952 H   0  0  0  0  0  0  0  0  0  0  0  0
  -85.5236   26.8134    2.0131 H   0  0  0  0  0  0  0  0  0  0  0  0
  -89.6951   29.8423   -2.0845 S   0  0  0  0  0  0  0  0  0  0  0  0
  -90.9873   29.9990   -1.3574 O   0  0  0  0  0  0  0  0  0  0  0  0
  -89.8917   28.9206   -3.2520 O   0  0  0  0  0  0  0  0  0  0  0  0
  -89.0492   31.3829   -2.6041 C   0  0  0  0  0  0  0  0  0  0  0  0
  -88.2709   31.4450   -3.7333 C   0  0  0  0  0  0  0  0  0  0  0  0
  -87.7196   32.6169   -4.2169 C   0  0  0  0  0  0  0  0  0  0  0  0
  -87.9826   33.7729   -3.5051 C   0  0  0  0  0  0  0  0  0  0  0  0
  -88.7653   33.7403   -2.3612 C   0  0  0  0  0  0  0  0  0  0  0  0
  -89.2897   32.5493   -1.9225 C   0  0  0  0  0  0  0  0  0  0  0  0
  1  2  1  0  0  0
  2  3  1  0  0  0
  3  4  1  0  0  0
  4  5  1  0  0  0
  5  6  1  0  0  0
  6  7  1  0  0  0
  7  8  2  0  0  0
  8  9  1  0  0  0
  9 10  2  0  0  0
 10 18  1  0  0  0
 18 19  2  0  0  0
 18 20  2  0  0  0
 18 21  1  0  0  0
 21 22  2  0  0  0
 22 23  1  0  0  0
 23 24  2  0  0  0
 24 25  1  0  0  0
 25 26  2  0  0  0
 10 11  1  0  0  0
 11 12  2  0  0  0
 12 13  1  0  0  0
 13 14  1  0  0  0
 14  2  1  0  0  0
 13  5  2  0  0  0
 12  7  1  0  0  0
 26 21  1  0  0  0
  1 15  1  0  0  0
  1 16  1  0  0  0
  6 17  1  0  0  0
M  END
> <minimizedAffinity>
-9.13231

> <CNNscore>
0.2036510259

> <CNNaffinity>
6.1811857224

> <CNN_VS>
1.2588047981

> <CNNaffinity_variance>
0.2161197215

$$$$
[H]c1c([H])c(OC([H])([H])[H])c2c(c1[H])[C@]([H])(C([H])([H])N(C([H])([H])[H])C([H])([H])C([H])([H])c1c([H])c([H])c3c(c1[H])C([H])([H])N(S(=O)(=O)C([H])([H])[H])C3([H])[H])C([H])([H])C([H])([H])C2([H])[H]


 30 33  0  0  0  0  0  0  0  0999 V2000
  -88.5607   31.9889   -1.1736 N   0  0  0  0  0  0  0  0  0  0  0  0
  -88.8389   33.2804   -1.6252 C   0  0  0  0  0  0  0  0  0  0  0  0
  -87.3316   31.3868   -1.3688 C   0  0  0  0  0  0  0  0  0  0  0  0
  -85.2225   28.4457    1.9419 C   0  0  0  0  0  0  0  0  0  0  0  0
  -85.8186   27.3480    1.3348 C   0  0  0  0  0  0  0  0  0  0  0  0
  -86.6263   27.5725    0.2176 C   0  0  0  0  0  0  0  0  0  0  0  0
  -86.8495   28.8392   -0.2993 C   0  0  0  0  0  0  0  0  0  0  0  0
  -86.2550   29.9318    0.3072 C   0  0  0  0  0  0  0  0  0  0  0  0
  -85.4673   29.6869    1.4005 C   0  0  0  0  0  0  0  0  0  0  0  0
  -84.8312   30.9247    1.9878 C   0  0  0  0  0  0  0  0  0  0  0  0
  -84.1662   31.6417    0.8205 C   0  0  0  0  0  0  0  0  0  0  0  0
  -85.1896   32.0759   -0.2032 C   0  0  0  0  0  0  0  0  0  0  0  0
  -86.4630   31.3207   -0.1484 C   0  0  0  0  0  0  0  0  0  0  0  0
  -83.2140   27.5492    3.0541 C   0  0  0  0  0  0  0  0  0  0  0  0
  -84.3941   28.3256    3.0693 O   0  0  0  0  0  0  0  0  0  0  0  0
  -89.6159   31.2215   -0.6238 C   0  0  0  0  0  0  0  0  0  0  0  0
  -90.2310   30.1768   -1.4935 C   0  0  0  0  0  0  0  0  0  0  0  0
  -90.3593   28.8689   -0.7531 C   0  0  0  0  0  0  0  0  0  0  0  0
  -90.2396   27.6382   -1.3521 C   0  0  0  0  0  0  0  0  0  0  0  0
  -90.3760   26.4584   -0.6611 C   0  0  0  0  0  0  0  0  0  0  0  0
  -90.6473   26.4580    0.7047 C   0  0  0  0  0  0  0  0  0  0  0  0
  -90.7680   27.6731    1.3080 C   0  0  0  0  0  0  0  0  0  0  0  0
  -90.6278   28.8757    0.6012 C   0  0  0  0  0  0  0  0  0  0  0  0
  -91.0625   27.4734    2.7522 C   0  0  0  0  0  0  0  0  0  0  0  0
  -90.9109   26.0677    2.9509 N   0  0  0  0  0  0  0  0  0  0  0  0
  -90.8412   25.3900    1.7005 C   0  0  0  0  0  0  0  0  0  0  0  0
  -89.4881   25.6812    3.8500 S   0  0  0  0  0  0  0  0  0  0  0  0
  -89.4543   23.9732    4.3144 C   0  0  0  0  0  0  0  0  0  0  0  0
  -88.3074   26.0261    2.9886 O   0  0  0  0  0  0  0  0  0  0  0  0
  -89.4012   26.5872    5.0576 O   0  0  0  0  0  0  0  0  0  0  0  0
 14 15  1  0  0  0
 15  4  1  0  0  0
  4  5  2  0  0  0
  5  6  1  0  0  0
  6  7  2  0  0  0
  7  8  1  0  0  0
  8  9  2  0  0  0
  9 10  1  0  0  0
 10 11  1  0  0  0
 11 12  1  0  0  0
 12 13  1  0  0  0
 13  3  1  0  0  0
  3  1  1  0  0  0
  1  2  1  0  0  0
  1 16  1  0  0  0
 16 17  1  0  0  0
 17 18  1  0  0  0
 18 19  2  0  0  0
 19 20  1  0  0  0
 20 21  2  0  0  0
 21 22  1  0  0  0
 22 23  2  0  0  0
 22 24  1  0  0  0
 24 25  1  0  0  0
 25 27  1  0  0  0
 27 28  1  0  0  0
 27 29  2  0  0  0
 27 30  2  0  0  0
 25 26  1  0  0  0
  9  4  1  0  0  0
 23 18  1  0  0  0
 13  8  1  0  0  0
 26 21  1  0  0  0
M  END
> <minimizedAffinity>
-7.34287

> <CNNscore>
0.3821452558

> <CNNaffinity>
6.7521314621

> <CNN_VS>
2.5802950859

> <CNNaffinity_variance>
0.0481583700

$$$$
[H]c1c([H])c(OC([H])([H])[H])c2c(c1[H])[C@]([H])(C([H])([H])N(C([H])([H])[H])C([H])([H])C([H])([H])c1c([H])c([H])c3c(c1[H])C([H])([H])N(S(=O)(=O)C([H])([H])[H])C3([H])[H])C([H])([H])C([H])([H])C2([H])[H]


 30 33  0  0  0  0  0  0  0  0999 V2000
  -89.8954   30.3001   -2.3021 N   0  0  0  0  0  0  0  0  0  0  0  0
  -89.4845   30.6908   -3.5780 C   0  0  0  0  0  0  0  0  0  0  0  0
  -89.3145   30.8028   -1.1527 C   0  0  0  0  0  0  0  0  0  0  0  0
  -84.6078   31.8431   -0.2449 C   0  0  0  0  0  0  0  0  0  0  0  0
  -84.8756   33.1912   -0.4447 C   0  0  0  0  0  0  0  0  0  0  0  0
  -86.1837   33.5615   -0.7646 C   0  0  0  0  0  0  0  0  0  0  0  0
  -87.2114   32.6394   -0.8873 C   0  0  0  0  0  0  0  0  0  0  0  0
  -86.9426   31.2964   -0.6883 C   0  0  0  0  0  0  0  0  0  0  0  0
  -85.6530   30.9577   -0.3753 C   0  0  0  0  0  0  0  0  0  0  0  0
  -85.4461   29.4792   -0.1449 C   0  0  0  0  0  0  0  0  0  0  0  0
  -86.5176   29.0622    0.8536 C   0  0  0  0  0  0  0  0  0  0  0  0
  -87.9010   29.2624    0.2795 C   0  0  0  0  0  0  0  0  0  0  0  0
  -87.9625   30.2388   -0.8331 C   0  0  0  0  0  0  0  0  0  0  0  0
  -82.7438   31.5900    1.3476 C   0  0  0  0  0  0  0  0  0  0  0  0
  -83.3264   31.3695    0.0797 O   0  0  0  0  0  0  0  0  0  0  0  0
  -90.8399   29.2517   -2.1860 C   0  0  0  0  0  0  0  0  0  0  0  0
  -91.7915   29.3084   -1.0381 C   0  0  0  0  0  0  0  0  0  0  0  0
  -91.3375   28.4047    0.0810 C   0  0  0  0  0  0  0  0  0  0  0  0
  -91.2498   28.8009    1.3936 C   0  0  0  0  0  0  0  0  0  0  0  0
  -90.8183   27.9654    2.3954 C   0  0  0  0  0  0  0  0  0  0  0  0
  -90.4431   26.6531    2.1189 C   0  0  0  0  0  0  0  0  0  0  0  0
  -90.5264   26.2505    0.8204 C   0  0  0  0  0  0  0  0  0  0  0  0
  -90.9675   27.1045   -0.2001 C   0  0  0  0  0  0  0  0  0  0  0  0
  -90.0812   24.8349    0.7193 C   0  0  0  0  0  0  0  0  0  0  0  0
  -89.9240   24.4180    2.0758 N   0  0  0  0  0  0  0  0  0  0  0  0
  -89.9538   25.5406    2.9512 C   0  0  0  0  0  0  0  0  0  0  0  0
  -91.1595   23.3182    2.5722 S   0  0  0  0  0  0  0  0  0  0  0  0
  -90.5806   21.6453    2.5747 C   0  0  0  0  0  0  0  0  0  0  0  0
  -91.6029   23.7343    3.9453 O   0  0  0  0  0  0  0  0  0  0  0  0
  -92.3658   23.4875    1.6761 O   0  0  0  0  0  0  0  0  0  0  0  0
 14 15  1  0  0  0
 15  4  1  0  0  0
  4  5  2  0  0  0
  5  6  1  0  0  0
  6  7  2  0  0  0
  7  8  1  0  0  0
  8  9  2  0  0  0
  9 10  1  0  0  0
 10 11  1  0  0  0
 11 12  1  0  0  0
 12 13  1  0  0  0
 13  3  1  0  0  0
  3  1  1  0  0  0
  1  2  1  0  0  0
  1 16  1  0  0  0
 16 17  1  0  0  0
 17 18  1  0  0  0
 18 19  2  0  0  0
 19 20  1  0  0  0
 20 21  2  0  0  0
 21 22  1  0  0  0
 22 23  2  0  0  0
 22 24  1  0  0  0
 24 25  1  0  0  0
 25 27  1  0  0  0
 27 28  1  0  0  0
 27 29  2  0  0  0
 27 30  2  0  0  0
 25 26  1  0  0  0
  9  4  1  0  0  0
 23 18  1  0  0  0
 13  8  1  0  0  0
 26 21  1  0  0  0
M  END
> <minimizedAffinity>
-8.16711

> <CNNscore>
0.3627976179

> <CNNaffinity>
6.4450201988

> <CNN_VS>
2.3382380009

> <CNNaffinity_variance>
0.0892725736

$$$$
[H]c1c([H])c(OC([H])([H])[H])c2c(c1[H])[C@]([H])(C([H])([H])N(C([H])([H])[H])C([H])([H])C([H])([H])c1c([H])c([H])c3c(c1[H])C([H])([H])N(S(=O)(=O)C([H])([H])[H])C3([H])[H])C([H])([H])C([H])([H])C2([H])[H]


 30 33  0  0  0  0  0  0  0  0999 V2000
  -90.5320   31.0117   -2.9993 N   0  0  0  0  0  0  0  0  0  0  0  0
  -91.2405   31.7505   -3.9488 C   0  0  0  0  0  0  0  0  0  0  0  0
  -90.4002   29.6378   -3.0803 C   0  0  0  0  0  0  0  0  0  0  0  0
  -88.9351   26.3999    0.3003 C   0  0  0  0  0  0  0  0  0  0  0  0
  -87.7338   26.2457   -0.3796 C   0  0  0  0  0  0  0  0  0  0  0  0
  -87.5386   26.9881   -1.5463 C   0  0  0  0  0  0  0  0  0  0  0  0
  -88.4921   27.8637   -2.0420 C   0  0  0  0  0  0  0  0  0  0  0  0
  -89.6886   28.0157   -1.3634 C   0  0  0  0  0  0  0  0  0  0  0  0
  -89.8570   27.2777   -0.2220 C   0  0  0  0  0  0  0  0  0  0  0  0
  -91.1742   27.5205    0.4764 C   0  0  0  0  0  0  0  0  0  0  0  0
  -91.2925   29.0316    0.6229 C   0  0  0  0  0  0  0  0  0  0  0  0
  -91.3426   29.7052   -0.7289 C   0  0  0  0  0  0  0  0  0  0  0  0
  -90.7772   28.8955   -1.8333 C   0  0  0  0  0  0  0  0  0  0  0  0
  -88.6804   26.0705    2.7296 C   0  0  0  0  0  0  0  0  0  0  0  0
  -89.2277   25.6990    1.4813 O   0  0  0  0  0  0  0  0  0  0  0  0
  -90.0545   31.6751   -1.8432 C   0  0  0  0  0  0  0  0  0  0  0  0
  -89.0326   32.7449   -2.0379 C   0  0  0  0  0  0  0  0  0  0  0  0
  -87.7555   32.4065   -1.3102 C   0  0  0  0  0  0  0  0  0  0  0  0
  -86.8968   33.3487   -0.7978 C   0  0  0  0  0  0  0  0  0  0  0  0
  -85.7299   33.0184   -0.1519 C   0  0  0  0  0  0  0  0  0  0  0  0
  -85.3584   31.6867    0.0153 C   0  0  0  0  0  0  0  0  0  0  0  0
  -86.2030   30.7449   -0.4893 C   0  0  0  0  0  0  0  0  0  0  0  0
  -87.3934   31.0840   -1.1474 C   0  0  0  0  0  0  0  0  0  0  0  0
  -85.6408   29.3936   -0.2242 C   0  0  0  0  0  0  0  0  0  0  0  0
  -84.5212   29.6393    0.6272 N   0  0  0  0  0  0  0  0  0  0  0  0
  -84.2032   31.0272    0.6479 C   0  0  0  0  0  0  0  0  0  0  0  0
  -84.8080   29.1309    2.2525 S   0  0  0  0  0  0  0  0  0  0  0  0
  -83.5787   27.9819    2.8026 C   0  0  0  0  0  0  0  0  0  0  0  0
  -84.8136   30.3625    3.1117 O   0  0  0  0  0  0  0  0  0  0  0  0
  -86.1991   28.5468    2.3530 O   0  0  0  0  0  0  0  0  0  0  0  0
 14 15  1  0  0  0
 15  4  1  0  0  0
  4  5  2  0  0  0
  5  6  1  0  0  0
  6  7  2  0  0  0
  7  8  1  0  0  0
  8  9  2  0  0  0
  9 10  1  0  0  0
 10 11  1  0  0  0
 11 12  1  0  0  0
 12 13  1  0  0  0
 13  3  1  0  0  0
  3  1  1  0  0  0
  1  2  1  0  0  0
  1 16  1  0  0  0
 16 17  1  0  0  0
 17 18  1  0  0  0
 18 19  2  0  0  0
 19 20  1  0  0  0
 20 21  2  0  0  0
 21 22  1  0  0  0
 22 23  2  0  0  0
 22 24  1  0  0  0
 24 25  1  0  0  0
 25 27  1  0  0  0
 27 28  1  0  0  0
 27 29  2  0  0  0
 27 30  2  0  0  0
 25 26  1  0  0  0
  9  4  1  0  0  0
 23 18  1  0  0  0
 13  8  1  0  0  0
 26 21  1  0  0  0
M  END
> <minimizedAffinity>
-7.58601

> <CNNscore>
0.2658723295

> <CNNaffinity>
6.4760856628

> <CNN_VS>
1.7218120098

> <CNNaffinity_variance>
0.1758398265

$$$$
[H]c1c([H])c(OC([H])([H])[H])c2c(c1[H])[C@]([H])(C([H])([H])N(C([H])([H])[H])C([H])([H])C([H])([H])c1c([H])c([H])c3c(c1[H])C([H])([H])N(S(=O)(=O)C([H])([H])[H])C3([H])[H])C([H])([H])C([H])([H])C2([H])[H]


 30 33  0  0  0  0  0  0  0  0999 V2000
  -90.0546   28.9653   -1.4902 N   0  0  0  0  0  0  0  0  0  0  0  0
  -89.8849   27.6885   -2.0289 C   0  0  0  0  0  0  0  0  0  0  0  0
  -89.5304   29.3248   -0.2624 C   0  0  0  0  0  0  0  0  0  0  0  0
  -85.3150   31.8320   -0.3201 C   0  0  0  0  0  0  0  0  0  0  0  0
  -86.0242   33.0034   -0.5521 C   0  0  0  0  0  0  0  0  0  0  0  0
  -87.4155   32.9225   -0.6446 C   0  0  0  0  0  0  0  0  0  0  0  0
  -88.1037   31.7264   -0.5135 C   0  0  0  0  0  0  0  0  0  0  0  0
  -87.3953   30.5601   -0.2827 C   0  0  0  0  0  0  0  0  0  0  0  0
  -86.0325   30.6645   -0.1956 C   0  0  0  0  0  0  0  0  0  0  0  0
  -85.3340   29.3551    0.0863 C   0  0  0  0  0  0  0  0  0  0  0  0
  -86.0464   28.7574    1.2923 C   0  0  0  0  0  0  0  0  0  0  0  0
  -87.4943   28.4627    0.9756 C   0  0  0  0  0  0  0  0  0  0  0  0
  -88.0368   29.2354   -0.1661 C   0  0  0  0  0  0  0  0  0  0  0  0
  -83.1478   32.9913   -0.1352 C   0  0  0  0  0  0  0  0  0  0  0  0
  -83.9153   31.8076   -0.2114 O   0  0  0  0  0  0  0  0  0  0  0  0
  -90.9094   29.8746   -2.1588 C   0  0  0  0  0  0  0  0  0  0  0  0
  -90.6640   30.1062   -3.6123 C   0  0  0  0  0  0  0  0  0  0  0  0
  -89.6943   31.2429   -3.8187 C   0  0  0  0  0  0  0  0  0  0  0  0
  -88.3783   31.0682   -4.1725 C   0  0  0  0  0  0  0  0  0  0  0  0
  -87.5076   32.1178   -4.3399 C   0  0  0  0  0  0  0  0  0  0  0  0
  -87.9292   33.4321   -4.1547 C   0  0  0  0  0  0  0  0  0  0  0  0
  -89.2322   33.6159   -3.8037 C   0  0  0  0  0  0  0  0  0  0  0  0
  -90.1191   32.5436   -3.6339 C   0  0  0  0  0  0  0  0  0  0  0  0
  -89.4936   35.0715   -3.6443 C   0  0  0  0  0  0  0  0  0  0  0  0
  -88.2989   35.6967   -4.1137 N   0  0  0  0  0  0  0  0  0  0  0  0
  -87.2560   34.7381   -4.2590 C   0  0  0  0  0  0  0  0  0  0  0  0
  -88.5224   36.4806   -5.6362 S   0  0  0  0  0  0  0  0  0  0  0  0
  -90.1686   36.2584   -6.2483 C   0  0  0  0  0  0  0  0  0  0  0  0
  -88.2158   37.9372   -5.4383 O   0  0  0  0  0  0  0  0  0  0  0  0
  -87.4912   35.9675   -6.6161 O   0  0  0  0  0  0  0  0  0  0  0  0
 14 15  1  0  0  0
 15  4  1  0  0  0
  4  5  2  0  0  0
  5  6  1  0  0  0
  6  7  2  0  0  0
  7  8  1  0  0  0
  8  9  2  0  0  0
  9 10  1  0  0  0
 10 11  1  0  0  0
 11 12  1  0  0  0
 12 13  1  0  0  0
 13  3  1  0  0  0
  3  1  1  0  0  0
  1  2  1  0  0  0
  1 16  1  0  0  0
 16 17  1  0  0  0
 17 18  1  0  0  0
 18 19  2  0  0  0
 19 20  1  0  0  0
 20 21  2  0  0  0
 21 22  1  0  0  0
 22 23  2  0  0  0
 22 24  1  0  0  0
 24 25  1  0  0  0
 25 27  1  0  0  0
 27 28  1  0  0  0
 27 29  2  0  0  0
 27 30  2  0  0  0
 25 26  1  0  0  0
  9  4  1  0  0  0
 23 18  1  0  0  0
 13  8  1  0  0  0
 26 21  1  0  0  0
M  END
> <minimizedAffinity>
-7.68213

> <CNNscore>
0.2588864863

> <CNNaffinity>
6.0570015907

> <CNN_VS>
1.5680758953

> <CNNaffinity_variance>
0.3110780716

$$$$
[H]c1c([H])c(OC([H])([H])[H])c2c(c1[H])[C@]([H])(C([H])([H])N(C([H])([H])[H])C([H])([H])C([H])([H])c1c([H])c([H])c3c(c1[H])C([H])([H])N(S(=O)(=O)C([H])([H])[H])C3([H])[H])C([H])([H])C([H])([H])C2([H])[H]


 30 33  0  0  0  0  0  0  0  0999 V2000
  -87.0515   33.0311   -1.9972 N   0  0  0  0  0  0  0  0  0  0  0  0
  -86.7080   34.1900   -2.6959 C   0  0  0  0  0  0  0  0  0  0  0  0
  -86.9801   32.9510   -0.6188 C   0  0  0  0  0  0  0  0  0  0  0  0
  -84.0109   29.6907    1.5290 C   0  0  0  0  0  0  0  0  0  0  0  0
  -85.0553   28.7760    1.5661 C   0  0  0  0  0  0  0  0  0  0  0  0
  -86.2899   29.1659    1.0423 C   0  0  0  0  0  0  0  0  0  0  0  0
  -86.5048   30.4202    0.4929 C   0  0  0  0  0  0  0  0  0  0  0  0
  -85.4630   31.3306    0.4572 C   0  0  0  0  0  0  0  0  0  0  0  0
  -84.2621   30.9255    0.9762 C   0  0  0  0  0  0  0  0  0  0  0  0
  -83.1687   31.9628    0.8741 C   0  0  0  0  0  0  0  0  0  0  0  0
  -83.1608   32.4138   -0.5804 C   0  0  0  0  0  0  0  0  0  0  0  0
  -84.4708   33.0690   -0.9521 C   0  0  0  0  0  0  0  0  0  0  0  0
  -85.6058   32.7007   -0.0740 C   0  0  0  0  0  0  0  0  0  0  0  0
  -82.3507   28.0827    2.3852 C   0  0  0  0  0  0  0  0  0  0  0  0
  -82.7327   29.3956    2.0299 O   0  0  0  0  0  0  0  0  0  0  0  0
  -87.3467   31.8584   -2.7336 C   0  0  0  0  0  0  0  0  0  0  0  0
  -88.7299   31.3093   -2.6256 C   0  0  0  0  0  0  0  0  0  0  0  0
  -88.7105   29.9136   -2.0539 C   0  0  0  0  0  0  0  0  0  0  0  0
  -87.8451   28.9309   -2.4696 C   0  0  0  0  0  0  0  0  0  0  0  0
  -87.8554   27.6606   -1.9460 C   0  0  0  0  0  0  0  0  0  0  0  0
  -88.7621   27.3059   -0.9503 C   0  0  0  0  0  0  0  0  0  0  0  0
  -89.6245   28.2731   -0.5313 C   0  0  0  0  0  0  0  0  0  0  0  0
  -89.6120   29.5688   -1.0665 C   0  0  0  0  0  0  0  0  0  0  0  0
  -90.5135   27.7114    0.5206 C   0  0  0  0  0  0  0  0  0  0  0  0
  -89.9645   26.4219    0.7932 N   0  0  0  0  0  0  0  0  0  0  0  0
  -89.0149   26.0610   -0.2046 C   0  0  0  0  0  0  0  0  0  0  0  0
  -89.1793   26.3538    2.3299 S   0  0  0  0  0  0  0  0  0  0  0  0
  -89.8023   25.0266    3.3220 C   0  0  0  0  0  0  0  0  0  0  0  0
  -87.7091   26.1875    2.0737 O   0  0  0  0  0  0  0  0  0  0  0  0
  -89.3323   27.6873    3.0263 O   0  0  0  0  0  0  0  0  0  0  0  0
 14 15  1  0  0  0
 15  4  1  0  0  0
  4  5  2  0  0  0
  5  6  1  0  0  0
  6  7  2  0  0  0
  7  8  1  0  0  0
  8  9  2  0  0  0
  9 10  1  0  0  0
 10 11  1  0  0  0
 11 12  1  0  0  0
 12 13  1  0  0  0
 13  3  1  0  0  0
  3  1  1  0  0  0
  1  2  1  0  0  0
  1 16  1  0  0  0
 16 17  1  0  0  0
 17 18  1  0  0  0
 18 19  2  0  0  0
 19 20  1  0  0  0
 20 21  2  0  0  0
 21 22  1  0  0  0
 22 23  2  0  0  0
 22 24  1  0  0  0
 24 25  1  0  0  0
 25 27  1  0  0  0
 27 28  1  0  0  0
 27 29  2  0  0  0
 27 30  2  0  0  0
 25 26  1  0  0  0
  9  4  1  0  0  0
 23 18  1  0  0  0
 13  8  1  0  0  0
 26 21  1  0  0  0
M  END
> <minimizedAffinity>
-8.67678

> <CNNscore>
0.2303262353

> <CNNaffinity>
6.5953125954

> <CNN_VS>
1.5190734863

> <CNNaffinity_variance>
0.2286198884

$$$$
[H]c1c([H])c(OC([H])([H])[H])c2c(c1[H])[C@]([H])(C([H])([H])N(C([H])([H])[H])C([H])([H])C([H])([H])c1c([H])c([H])c3c(c1[H])C([H])([H])N(S(=O)(=O)C([H])([H])[H])C3([H])[H])C([H])([H])C([H])([H])C2([H])[H]


 30 33  0  0  0  0  0  0  0  0999 V2000
  -88.6525   26.0384    1.5608 N   0  0  0  0  0  0  0  0  0  0  0  0
  -88.9237   26.2704    2.9105 C   0  0  0  0  0  0  0  0  0  0  0  0
  -87.3996   26.2433    1.0132 C   0  0  0  0  0  0  0  0  0  0  0  0
  -84.1565   29.8844    1.5458 C   0  0  0  0  0  0  0  0  0  0  0  0
  -83.3689   29.0567    2.3355 C   0  0  0  0  0  0  0  0  0  0  0  0
  -83.8139   27.7537    2.5701 C   0  0  0  0  0  0  0  0  0  0  0  0
  -85.0008   27.2650    2.0469 C   0  0  0  0  0  0  0  0  0  0  0  0
  -85.7845   28.0914    1.2606 C   0  0  0  0  0  0  0  0  0  0  0  0
  -85.3275   29.3642    1.0443 C   0  0  0  0  0  0  0  0  0  0  0  0
  -86.2223   30.1940    0.1539 C   0  0  0  0  0  0  0  0  0  0  0  0
  -86.4752   29.3452   -1.0848 C   0  0  0  0  0  0  0  0  0  0  0  0
  -87.2095   28.0731   -0.7297 C   0  0  0  0  0  0  0  0  0  0  0  0
  -87.0805   27.6725    0.6907 C   0  0  0  0  0  0  0  0  0  0  0  0
  -82.7060   31.5225    0.4111 C   0  0  0  0  0  0  0  0  0  0  0  0
  -83.7975   31.2097    1.2518 O   0  0  0  0  0  0  0  0  0  0  0  0
  -89.7291   25.7188    0.6986 C   0  0  0  0  0  0  0  0  0  0  0  0
  -90.9460   26.5793    0.7710 C   0  0  0  0  0  0  0  0  0  0  0  0
  -90.6925   27.9227    0.1337 C   0  0  0  0  0  0  0  0  0  0  0  0
  -90.4112   29.0637    0.8453 C   0  0  0  0  0  0  0  0  0  0  0  0
  -90.1993   30.2813    0.2449 C   0  0  0  0  0  0  0  0  0  0  0  0
  -90.2615   30.4153   -1.1398 C   0  0  0  0  0  0  0  0  0  0  0  0
  -90.5398   29.2898   -1.8545 C   0  0  0  0  0  0  0  0  0  0  0  0
  -90.7552   28.0483   -1.2399 C   0  0  0  0  0  0  0  0  0  0  0  0
  -90.5720   29.6273   -3.3027 C   0  0  0  0  0  0  0  0  0  0  0  0
  -90.1070   30.9760   -3.3599 N   0  0  0  0  0  0  0  0  0  0  0  0
  -90.0834   31.5530   -2.0583 C   0  0  0  0  0  0  0  0  0  0  0  0
  -88.5190   31.0954   -4.0280 S   0  0  0  0  0  0  0  0  0  0  0  0
  -87.5200   32.2501   -3.1320 C   0  0  0  0  0  0  0  0  0  0  0  0
  -87.9140   29.7214   -3.9912 O   0  0  0  0  0  0  0  0  0  0  0  0
  -88.6209   31.4664   -5.4904 O   0  0  0  0  0  0  0  0  0  0  0  0
 14 15  1  0  0  0
 15  4  1  0  0  0
  4  5  2  0  0  0
  5  6  1  0  0  0
  6  7  2  0  0  0
  7  8  1  0  0  0
  8  9  2  0  0  0
  9 10  1  0  0  0
 10 11  1  0  0  0
 11 12  1  0  0  0
 12 13  1  0  0  0
 13  3  1  0  0  0
  3  1  1  0  0  0
  1  2  1  0  0  0
  1 16  1  0  0  0
 16 17  1  0  0  0
 17 18  1  0  0  0
 18 19  2  0  0  0
 19 20  1  0  0  0
 20 21  2  0  0  0
 21 22  1  0  0  0
 22 23  2  0  0  0
 22 24  1  0  0  0
 24 25  1  0  0  0
 25 27  1  0  0  0
 27 28  1  0  0  0
 27 29  2  0  0  0
 27 30  2  0  0  0
 25 26  1  0  0  0
  9  4  1  0  0  0
 23 18  1  0  0  0
 13  8  1  0  0  0
 26 21  1  0  0  0
M  END
> <minimizedAffinity>
-8.59991

> <CNNscore>
0.2279079556

> <CNNaffinity>
6.3921017647

> <CNN_VS>
1.4568108320

> <CNNaffinity_variance>
0.2998396158

$$$$
[H]c1c([H])c(OC([H])([H])[H])c2c(c1[H])[C@]([H])(C([H])([H])N(C([H])([H])[H])C([H])([H])C([H])([H])c1c([H])c([H])c3c(c1[H])C([H])([H])N(S(=O)(=O)C([H])([H])[H])C3([H])[H])C([H])([H])C([H])([H])C2([H])[H]


 30 33  0  0  0  0  0  0  0  0999 V2000
  -84.9628   28.2696    2.1600 N   0  0  0  0  0  0  0  0  0  0  0  0
  -83.7755   27.8300    2.7484 C   0  0  0  0  0  0  0  0  0  0  0  0
  -85.8543   27.4015    1.5573 C   0  0  0  0  0  0  0  0  0  0  0  0
  -89.6115   29.0117   -1.1537 C   0  0  0  0  0  0  0  0  0  0  0  0
  -88.8028   28.9744   -2.2823 C   0  0  0  0  0  0  0  0  0  0  0  0
  -87.4806   28.5508   -2.1301 C   0  0  0  0  0  0  0  0  0  0  0  0
  -86.9552   28.1704   -0.9051 C   0  0  0  0  0  0  0  0  0  0  0  0
  -87.7625   28.2086    0.2184 C   0  0  0  0  0  0  0  0  0  0  0  0
  -89.0549   28.6268    0.0444 C   0  0  0  0  0  0  0  0  0  0  0  0
  -89.8796   28.6130    1.3100 C   0  0  0  0  0  0  0  0  0  0  0  0
  -89.6911   27.2268    1.9115 C   0  0  0  0  0  0  0  0  0  0  0  0
  -88.2463   26.9900    2.2856 C   0  0  0  0  0  0  0  0  0  0  0  0
  -87.2824   27.8580    1.5699 C   0  0  0  0  0  0  0  0  0  0  0  0
  -91.7683   29.1938   -2.3326 C   0  0  0  0  0  0  0  0  0  0  0  0
  -90.9533   29.4227   -1.2016 O   0  0  0  0  0  0  0  0  0  0  0  0
  -85.1911   29.6629    2.0539 C   0  0  0  0  0  0  0  0  0  0  0  0
  -84.1231   30.4875    1.4169 C   0  0  0  0  0  0  0  0  0  0  0  0
  -84.7159   31.4737    0.4416 C   0  0  0  0  0  0  0  0  0  0  0  0
  -83.9823   32.4316   -0.2155 C   0  0  0  0  0  0  0  0  0  0  0  0
  -84.5456   33.3310   -1.0883 C   0  0  0  0  0  0  0  0  0  0  0  0
  -85.9130   33.3107   -1.3508 C   0  0  0  0  0  0  0  0  0  0  0  0
  -86.6493   32.3648   -0.7043 C   0  0  0  0  0  0  0  0  0  0  0  0
  -86.0724   31.4477    0.1855 C   0  0  0  0  0  0  0  0  0  0  0  0
  -88.0761   32.5018   -1.1013 C   0  0  0  0  0  0  0  0  0  0  0  0
  -88.0569   33.4647   -2.1554 N   0  0  0  0  0  0  0  0  0  0  0  0
  -86.7927   34.1173   -2.2143 C   0  0  0  0  0  0  0  0  0  0  0  0
  -88.3660   32.7548   -3.6991 S   0  0  0  0  0  0  0  0  0  0  0  0
  -90.0313   32.1675   -3.8248 C   0  0  0  0  0  0  0  0  0  0  0  0
  -88.0874   33.8035   -4.7372 O   0  0  0  0  0  0  0  0  0  0  0  0
  -87.3661   31.6477   -3.9468 O   0  0  0  0  0  0  0  0  0  0  0  0
 14 15  1  0  0  0
 15  4  1  0  0  0
  4  5  2  0  0  0
  5  6  1  0  0  0
  6  7  2  0  0  0
  7  8  1  0  0  0
  8  9  2  0  0  0
  9 10  1  0  0  0
 10 11  1  0  0  0
 11 12  1  0  0  0
 12 13  1  0  0  0
 13  3  1  0  0  0
  3  1  1  0  0  0
  1  2  1  0  0  0
  1 16  1  0  0  0
 16 17  1  0  0  0
 17 18  1  0  0  0
 18 19  2  0  0  0
 19 20  1  0  0  0
 20 21  2  0  0  0
 21 22  1  0  0  0
 22 23  2  0  0  0
 22 24  1  0  0  0
 24 25  1  0  0  0
 25 27  1  0  0  0
 27 28  1  0  0  0
 27 29  2  0  0  0
 27 30  2  0  0  0
 25 26  1  0  0  0
  9  4  1  0  0  0
 23 18  1  0  0  0
 13  8  1  0  0  0
 26 21  1  0  0  0
M  END
> <minimizedAffinity>
-8.46622

> <CNNscore>
0.2152967155

> <CNNaffinity>
6.5411324501

> <CNN_VS>
1.4082843065

> <CNNaffinity_variance>
0.1980688870

$$$$
[H]c1c([H])c(OC([H])([H])[H])c2c(c1[H])[C@]([H])(C([H])([H])N(C([H])([H])[H])C([H])([H])C([H])([H])c1c([H])c([H])c3c(c1[H])C([H])([H])N(S(=O)(=O)C([H])([H])[H])C3([H])[H])C([H])([H])C([H])([H])C2([H])[H]


 30 33  0  0  0  0  0  0  0  0999 V2000
  -91.3049   31.0182   -3.9444 N   0  0  0  0  0  0  0  0  0  0  0  0
  -91.9124   29.8870   -4.4926 C   0  0  0  0  0  0  0  0  0  0  0  0
  -90.5532   31.8947   -4.7049 C   0  0  0  0  0  0  0  0  0  0  0  0
  -88.5685   36.2333   -3.5662 C   0  0  0  0  0  0  0  0  0  0  0  0
  -87.3198   35.6311   -3.4823 C   0  0  0  0  0  0  0  0  0  0  0  0
  -87.2332   34.2595   -3.7308 C   0  0  0  0  0  0  0  0  0  0  0  0
  -88.3388   33.4886   -4.0549 C   0  0  0  0  0  0  0  0  0  0  0  0
  -89.5823   34.0904   -4.1376 C   0  0  0  0  0  0  0  0  0  0  0  0
  -89.6422   35.4361   -3.8903 C   0  0  0  0  0  0  0  0  0  0  0  0
  -91.0268   36.0240   -4.0286 C   0  0  0  0  0  0  0  0  0  0  0  0
  -91.5391   35.5610   -5.3859 C   0  0  0  0  0  0  0  0  0  0  0  0
  -91.6572   34.0554   -5.4361 C   0  0  0  0  0  0  0  0  0  0  0  0
  -90.8210   33.3460   -4.4398 C   0  0  0  0  0  0  0  0  0  0  0  0
  -87.6779   38.4960   -3.1636 C   0  0  0  0  0  0  0  0  0  0  0  0
  -88.7607   37.6048   -3.3341 O   0  0  0  0  0  0  0  0  0  0  0  0
  -91.3436   31.1949   -2.5402 C   0  0  0  0  0  0  0  0  0  0  0  0
  -90.6522   30.1738   -1.7000 C   0  0  0  0  0  0  0  0  0  0  0  0
  -89.3127   30.6833   -1.2294 C   0  0  0  0  0  0  0  0  0  0  0  0
  -89.0431   32.0083   -0.9862 C   0  0  0  0  0  0  0  0  0  0  0  0
  -87.8103   32.4526   -0.5731 C   0  0  0  0  0  0  0  0  0  0  0  0
  -86.7582   31.5613   -0.3786 C   0  0  0  0  0  0  0  0  0  0  0  0
  -87.0153   30.2453   -0.6172 C   0  0  0  0  0  0  0  0  0  0  0  0
  -88.2740   29.7939   -1.0381 C   0  0  0  0  0  0  0  0  0  0  0  0
  -85.7813   29.4539   -0.3655 C   0  0  0  0  0  0  0  0  0  0  0  0
  -84.8729   30.3928    0.2106 N   0  0  0  0  0  0  0  0  0  0  0  0
  -85.3583   31.7219    0.0509 C   0  0  0  0  0  0  0  0  0  0  0  0
  -84.6206   30.1132    1.8960 S   0  0  0  0  0  0  0  0  0  0  0  0
  -85.7061   28.8611    2.5188 C   0  0  0  0  0  0  0  0  0  0  0  0
  -83.1839   29.7138    2.0728 O   0  0  0  0  0  0  0  0  0  0  0  0
  -84.7860   31.4155    2.6466 O   0  0  0  0  0  0  0  0  0  0  0  0
 14 15  1  0  0  0
 15  4  1  0  0  0
  4  5  2  0  0  0
  5  6  1  0  0  0
  6  7  2  0  0  0
  7  8  1  0  0  0
  8  9  2  0  0  0
  9 10  1  0  0  0
 10 11  1  0  0  0
 11 12  1  0  0  0
 12 13  1  0  0  0
 13  3  1  0  0  0
  3  1  1  0  0  0
  1  2  1  0  0  0
  1 16  1  0  0  0
 16 17  1  0  0  0
 17 18  1  0  0  0
 18 19  2  0  0  0
 19 20  1  0  0  0
 20 21  2  0  0  0
 21 22  1  0  0  0
 22 23  2  0  0  0
 22 24  1  0  0  0
 24 25  1  0  0  0
 25 27  1  0  0  0
 27 28  1  0  0  0
 27 29  2  0  0  0
 27 30  2  0  0  0
 25 26  1  0  0  0
  9  4  1  0  0  0
 23 18  1  0  0  0
 13  8  1  0  0  0
 26 21  1  0  0  0
M  END
> <minimizedAffinity>
-7.27341

> <CNNscore>
0.2133857012

> <CNNaffinity>
6.1404900551

> <CNN_VS>
1.3102927208

> <CNNaffinity_variance>
0.0597855076

$$$$
[H]c1c([H])c(OC([H])([H])[H])c2c(c1[H])[C@]([H])(C([H])([H])N(C([H])([H])[H])C([H])([H])C([H])([H])c1c([H])c([H])c3c(c1[H])C([H])([H])N(S(=O)(=O)C([H])([H])[H])C3([H])[H])C([H])([H])C([H])([H])C2([H])[H]


 30 33  0  0  0  0  0  0  0  0999 V2000
  -84.7547   32.1846   -0.2855 N   0  0  0  0  0  0  0  0  0  0  0  0
  -83.5266   32.7209    0.1061 C   0  0  0  0  0  0  0  0  0  0  0  0
  -85.8702   32.9727   -0.5000 C   0  0  0  0  0  0  0  0  0  0  0  0
  -89.8283   31.5076   -2.9993 C   0  0  0  0  0  0  0  0  0  0  0  0
  -90.4180   31.0986   -1.8101 C   0  0  0  0  0  0  0  0  0  0  0  0
  -89.7005   31.2767   -0.6251 C   0  0  0  0  0  0  0  0  0  0  0  0
  -88.4351   31.8417   -0.5967 C   0  0  0  0  0  0  0  0  0  0  0  0
  -87.8489   32.2483   -1.7827 C   0  0  0  0  0  0  0  0  0  0  0  0
  -88.5716   32.0639   -2.9313 C   0  0  0  0  0  0  0  0  0  0  0  0
  -87.8777   32.5589   -4.1785 C   0  0  0  0  0  0  0  0  0  0  0  0
  -87.4447   33.9864   -3.8721 C   0  0  0  0  0  0  0  0  0  0  0  0
  -86.4517   34.0192   -2.7335 C   0  0  0  0  0  0  0  0  0  0  0  0
  -86.4922   32.8259   -1.8564 C   0  0  0  0  0  0  0  0  0  0  0  0
  -91.5472   30.4828   -4.4380 C   0  0  0  0  0  0  0  0  0  0  0  0
  -90.4667   31.3716   -4.2425 O   0  0  0  0  0  0  0  0  0  0  0  0
  -84.8970   30.7765   -0.3264 C   0  0  0  0  0  0  0  0  0  0  0  0
  -84.3863   30.0001    0.8410 C   0  0  0  0  0  0  0  0  0  0  0  0
  -85.3676   28.9277    1.2435 C   0  0  0  0  0  0  0  0  0  0  0  0
  -84.9999   27.7295    1.8063 C   0  0  0  0  0  0  0  0  0  0  0  0
  -85.9099   26.7594    2.1509 C   0  0  0  0  0  0  0  0  0  0  0  0
  -87.2730   26.9518    1.9408 C   0  0  0  0  0  0  0  0  0  0  0  0
  -87.6479   28.1364    1.3832 C   0  0  0  0  0  0  0  0  0  0  0  0
  -86.7178   29.1252    1.0328 C   0  0  0  0  0  0  0  0  0  0  0  0
  -89.1272   28.1567    1.2299 C   0  0  0  0  0  0  0  0  0  0  0  0
  -89.5676   26.9826    1.9124 N   0  0  0  0  0  0  0  0  0  0  0  0
  -88.4659   26.1270    2.1987 C   0  0  0  0  0  0  0  0  0  0  0  0
  -90.3635   27.3477    3.4009 S   0  0  0  0  0  0  0  0  0  0  0  0
  -90.9688   25.8844    4.1925 C   0  0  0  0  0  0  0  0  0  0  0  0
  -89.3715   28.0592    4.2754 O   0  0  0  0  0  0  0  0  0  0  0  0
  -91.4753   28.3390    3.1405 O   0  0  0  0  0  0  0  0  0  0  0  0
 14 15  1  0  0  0
 15  4  1  0  0  0
  4  5  2  0  0  0
  5  6  1  0  0  0
  6  7  2  0  0  0
  7  8  1  0  0  0
  8  9  2  0  0  0
  9 10  1  0  0  0
 10 11  1  0  0  0
 11 12  1  0  0  0
 12 13  1  0  0  0
 13  3  1  0  0  0
  3  1  1  0  0  0
  1  2  1  0  0  0
  1 16  1  0  0  0
 16 17  1  0  0  0
 17 18  1  0  0  0
 18 19  2  0  0  0
 19 20  1  0  0  0
 20 21  2  0  0  0
 21 22  1  0  0  0
 22 23  2  0  0  0
 22 24  1  0  0  0
 24 25  1  0  0  0
 25 27  1  0  0  0
 27 28  1  0  0  0
 27 29  2  0  0  0
 27 30  2  0  0  0
 25 26  1  0  0  0
  9  4  1  0  0  0
 23 18  1  0  0  0
 13  8  1  0  0  0
 26 21  1  0  0  0
M  END
> <minimizedAffinity>
-7.83423

> <CNNscore>
0.1939984858

> <CNNaffinity>
6.4784789085

> <CNN_VS>
1.2568150759

> <CNNaffinity_variance>
0.1728699952

$$$$
[H]N=C(c1c([H])c([H])c(C([H])([H])N([H])C(=O)C2([H])N3C(=O)[C@](O[H])(C([H])([H])c4c([H])c([H])c([H])c([H])c4[H])C([H])([H])C([H])([H])[C@]3([H])C([H])([H])C2([H])[H])c([H])c1[H])N([H])[H]


 36 39  0  0  0  0  0  0  0  0999 V2000
  -83.7535   31.0959   -0.0932 C   0  0  0  0  0  0  0  0  0  0  0  0
  -82.7517   31.7138    0.8591 C   0  0  0  0  0  0  0  0  0  0  0  0
  -83.5649   31.7594    2.1437 C   0  0  0  0  0  0  0  0  0  0  0  0
  -84.1854   30.3811    2.1453 C   0  0  0  0  0  0  0  0  0  0  0  0
  -85.4746   30.3407    2.9219 C   0  0  0  0  0  0  0  0  0  0  0  0
  -86.1916   29.0430    2.7442 C   0  0  0  0  0  0  0  0  0  0  0  0
  -85.6456   28.1756    1.6448 C   0  0  0  0  0  0  0  0  0  0  0  0
  -84.4931   27.4900    2.0645 O   0  0  0  0  0  0  0  0  0  0  0  0
  -85.3511   29.0394    0.4713 C   0  0  0  0  0  0  0  0  0  0  0  0
  -85.8112   28.8724   -0.6733 O   0  0  0  0  0  0  0  0  0  0  0  0
  -84.4633   30.1388    0.7211 N   0  0  0  0  0  0  0  0  0  0  0  0
  -84.6539   27.2895    3.0343 H   0  0  0  0  0  0  0  0  0  0  0  0
  -86.0528   31.9606   -0.5017 N   0  0  0  0  0  0  0  0  0  0  0  0
  -84.6583   32.2194   -0.5283 C   0  0  0  0  0  0  0  0  0  0  0  0
  -84.2205   33.3183   -0.8935 O   0  0  0  0  0  0  0  0  0  0  0  0
  -86.4424   31.0243   -0.1928 H   0  0  0  0  0  0  0  0  0  0  0  0
  -87.0541   32.9393   -0.8886 C   0  0  0  0  0  0  0  0  0  0  0  0
  -90.1241   30.9541   -3.0917 C   0  0  0  0  0  0  0  0  0  0  0  0
  -90.3431   31.4333   -1.8304 C   0  0  0  0  0  0  0  0  0  0  0  0
  -89.3725   32.0872   -1.0793 C   0  0  0  0  0  0  0  0  0  0  0  0
  -88.1347   32.2594   -1.6313 C   0  0  0  0  0  0  0  0  0  0  0  0
  -87.8859   31.7890   -2.8955 C   0  0  0  0  0  0  0  0  0  0  0  0
  -88.8559   31.1364   -3.6442 C   0  0  0  0  0  0  0  0  0  0  0  0
  -91.2959   30.3370   -5.1316 N   0  0  0  0  0  0  0  0  0  0  0  0
  -91.1535   30.2715   -3.8618 C   0  0  0  0  0  0  0  0  0  0  0  0
  -92.1116   29.4431   -3.1793 N   0  0  0  0  0  0  0  0  0  0  0  0
  -90.6467   30.9115   -5.6898 H   0  0  0  0  0  0  0  0  0  0  0  0
  -91.8075   28.5867   -2.6700 H   0  0  0  0  0  0  0  0  0  0  0  0
  -93.1171   29.7181   -3.2053 H   0  0  0  0  0  0  0  0  0  0  0  0
  -86.6632   27.1142    1.2989 C   0  0  0  0  0  0  0  0  0  0  0  0
  -88.0425   27.5277    1.5471 C   0  0  0  0  0  0  0  0  0  0  0  0
  -88.7243   27.2411    2.7134 C   0  0  0  0  0  0  0  0  0  0  0  0
  -90.0342   27.6482    2.9110 C   0  0  0  0  0  0  0  0  0  0  0  0
  -90.6951   28.3586    1.9331 C   0  0  0  0  0  0  0  0  0  0  0  0
  -90.0393   28.6518    0.7738 C   0  0  0  0  0  0  0  0  0  0  0  0
  -88.7229   28.2394    0.5824 C   0  0  0  0  0  0  0  0  0  0  0  0
 24 25  2  0  0  0
 25 26  1  0  0  0
 25 18  1  0  0  0
 18 19  2  0  0  0
 19 20  1  0  0  0
 20 21  2  0  0  0
 21 17  1  0  0  0
 17 13  1  0  0  0
 13 14  1  0  0  0
 14 15  2  0  0  0
 14  1  1  0  0  0
  1  2  1  0  0  0
  2  3  1  0  0  0
  3  4  1  0  0  0
  4  5  1  0  0  0
  5  6  1  0  0  0
  6  7  1  0  0  0
  7  8  1  0  0  0
  7 30  1  0  0  0
 30 31  1  0  0  0
 31 32  2  0  0  0
 32 33  1  0  0  0
 33 34  2  0  0  0
 34 35  1  0  0  0
 35 36  2  0  0  0
  7  9  1  0  0  0
  9 10  2  0  0  0
  9 11  1  0  0  0
 21 22  1  0  0  0
 22 23  2  0  0  0
 23 18  1  0  0  0
 11  1  1  0  0  0
 11  4  1  0  0  0
 36 31  1  0  0  0
 24 27  1  0  0  0
 26 28  1  0  0  0
 26 29  1  0  0  0
 13 16  1  0  0  0
  8 12  1  0  0  0
M  END
> <minimizedAffinity>
-8.79016

> <CNNscore>
0.4582810104

> <CNNaffinity>
6.6003255844

> <CNN_VS>
3.0248038769

> <CNNaffinity_variance>
0.0322644673

$$$$
[H]N=C(c1c([H])c([H])c(C([H])([H])N([H])C(=O)C2([H])N3C(=O)[C@](O[H])(C([H])([H])c4c([H])c([H])c([H])c([H])c4[H])C([H])([H])C([H])([H])[C@]3([H])C([H])([H])C2([H])[H])c([H])c1[H])N([H])[H]


 36 39  0  0  0  0  0  0  0  0999 V2000
  -87.8133   32.8640   -3.9939 C   0  0  0  0  0  0  0  0  0  0  0  0
  -89.2136   33.4101   -3.8120 C   0  0  0  0  0  0  0  0  0  0  0  0
  -89.5092   32.9765   -2.3844 C   0  0  0  0  0  0  0  0  0  0  0  0
  -88.2204   33.3557   -1.6915 C   0  0  0  0  0  0  0  0  0  0  0  0
  -87.9728   32.5246   -0.4608 C   0  0  0  0  0  0  0  0  0  0  0  0
  -86.6062   32.7494    0.0976 C   0  0  0  0  0  0  0  0  0  0  0  0
  -85.6837   33.5190   -0.8057 C   0  0  0  0  0  0  0  0  0  0  0  0
  -85.9449   34.8982   -0.7417 O   0  0  0  0  0  0  0  0  0  0  0  0
  -85.8558   33.0103   -2.1918 C   0  0  0  0  0  0  0  0  0  0  0  0
  -84.9406   32.5672   -2.9101 O   0  0  0  0  0  0  0  0  0  0  0  0
  -87.1961   33.0514   -2.7028 N   0  0  0  0  0  0  0  0  0  0  0  0
  -86.2126   35.0637    0.2109 H   0  0  0  0  0  0  0  0  0  0  0  0
  -87.7075   30.4858   -3.2626 N   0  0  0  0  0  0  0  0  0  0  0  0
  -87.9778   31.4005   -4.3126 C   0  0  0  0  0  0  0  0  0  0  0  0
  -88.3302   31.0021   -5.4305 O   0  0  0  0  0  0  0  0  0  0  0  0
  -87.4036   30.8119   -2.3007 H   0  0  0  0  0  0  0  0  0  0  0  0
  -87.8216   29.0451   -3.4094 C   0  0  0  0  0  0  0  0  0  0  0  0
  -87.0831   27.2572    0.3955 C   0  0  0  0  0  0  0  0  0  0  0  0
  -87.9302   26.6856   -0.5123 C   0  0  0  0  0  0  0  0  0  0  0  0
  -88.1970   27.2329   -1.7625 C   0  0  0  0  0  0  0  0  0  0  0  0
  -87.5801   28.4040   -2.1010 C   0  0  0  0  0  0  0  0  0  0  0  0
  -86.7247   29.0005   -1.2100 C   0  0  0  0  0  0  0  0  0  0  0  0
  -86.4593   28.4529    0.0378 C   0  0  0  0  0  0  0  0  0  0  0  0
  -85.6936   26.6966    2.3113 N   0  0  0  0  0  0  0  0  0  0  0  0
  -86.8172   26.6686    1.6999 C   0  0  0  0  0  0  0  0  0  0  0  0
  -87.8773   25.9895    2.3963 N   0  0  0  0  0  0  0  0  0  0  0  0
  -84.8858   27.1657    1.8748 H   0  0  0  0  0  0  0  0  0  0  0  0
  -88.7251   26.5073    2.7102 H   0  0  0  0  0  0  0  0  0  0  0  0
  -87.7791   24.9678    2.5802 H   0  0  0  0  0  0  0  0  0  0  0  0
  -84.2609   33.3385   -0.3314 C   0  0  0  0  0  0  0  0  0  0  0  0
  -84.0630   32.1320    0.4686 C   0  0  0  0  0  0  0  0  0  0  0  0
  -83.2082   31.1100    0.1051 C   0  0  0  0  0  0  0  0  0  0  0  0
  -83.0493   29.9786    0.8896 C   0  0  0  0  0  0  0  0  0  0  0  0
  -83.7515   29.8466    2.0673 C   0  0  0  0  0  0  0  0  0  0  0  0
  -84.6009   30.8448    2.4442 C   0  0  0  0  0  0  0  0  0  0  0  0
  -84.7555   31.9789    1.6507 C   0  0  0  0  0  0  0  0  0  0  0  0
 24 25  2  0  0  0
 25 26  1  0  0  0
 25 18  1  0  0  0
 18 19  2  0  0  0
 19 20  1  0  0  0
 20 21  2  0  0  0
 21 17  1  0  0  0
 17 13  1  0  0  0
 13 14  1  0  0  0
 14 15  2  0  0  0
 14  1  1  0  0  0
  1  2  1  0  0  0
  2  3  1  0  0  0
  3  4  1  0  0  0
  4  5  1  0  0  0
  5  6  1  0  0  0
  6  7  1  0  0  0
  7  8  1  0  0  0
  7 30  1  0  0  0
 30 31  1  0  0  0
 31 32  2  0  0  0
 32 33  1  0  0  0
 33 34  2  0  0  0
 34 35  1  0  0  0
 35 36  2  0  0  0
  7  9  1  0  0  0
  9 10  2  0  0  0
  9 11  1  0  0  0
 21 22  1  0  0  0
 22 23  2  0  0  0
 23 18  1  0  0  0
 11  1  1  0  0  0
 11  4  1  0  0  0
 36 31  1  0  0  0
 24 27  1  0  0  0
 26 28  1  0  0  0
 26 29  1  0  0  0
 13 16  1  0  0  0
  8 12  1  0  0  0
M  END
> <minimizedAffinity>
-7.67142

> <CNNscore>
0.2155394554

> <CNNaffinity>
6.0269684792

> <CNN_VS>
1.2990494967

> <CNNaffinity_variance>
0.1921501011

$$$$
[H]N=C(c1c([H])c([H])c(C([H])([H])N([H])C(=O)C2([H])N3C(=O)[C@](O[H])(C([H])([H])c4c([H])c([H])c([H])c([H])c4[H])C([H])([H])C([H])([H])[C@]3([H])C([H])([H])C2([H])[H])c([H])c1[H])N([H])[H]


 36 39  0  0  0  0  0  0  0  0999 V2000
  -89.8512   30.9166   -2.9625 C   0  0  0  0  0  0  0  0  0  0  0  0
  -88.8311   30.7457   -4.0682 C   0  0  0  0  0  0  0  0  0  0  0  0
  -87.8408   29.8017   -3.4036 C   0  0  0  0  0  0  0  0  0  0  0  0
  -88.7752   28.7913   -2.7785 C   0  0  0  0  0  0  0  0  0  0  0  0
  -88.1594   28.1129   -1.5838 C   0  0  0  0  0  0  0  0  0  0  0  0
  -89.1526   27.2792   -0.8433 C   0  0  0  0  0  0  0  0  0  0  0  0
  -90.5807   27.4974   -1.2579 C   0  0  0  0  0  0  0  0  0  0  0  0
  -90.8755   26.8070   -2.4457 O   0  0  0  0  0  0  0  0  0  0  0  0
  -90.8004   28.9581   -1.4250 C   0  0  0  0  0  0  0  0  0  0  0  0
  -91.6757   29.6216   -0.8391 O   0  0  0  0  0  0  0  0  0  0  0  0
  -89.9133   29.6151   -2.3420 N   0  0  0  0  0  0  0  0  0  0  0  0
  -90.3333   25.9644   -2.3928 H   0  0  0  0  0  0  0  0  0  0  0  0
  -88.1104   32.6250   -2.4599 N   0  0  0  0  0  0  0  0  0  0  0  0
  -89.2742   31.9424   -2.0218 C   0  0  0  0  0  0  0  0  0  0  0  0
  -89.7799   32.1874   -0.9187 O   0  0  0  0  0  0  0  0  0  0  0  0
  -87.6654   32.4250   -3.4011 H   0  0  0  0  0  0  0  0  0  0  0  0
  -87.4364   33.6417   -1.6712 C   0  0  0  0  0  0  0  0  0  0  0  0
  -83.9654   31.9864    0.1811 C   0  0  0  0  0  0  0  0  0  0  0  0
  -85.1812   31.3661    0.2545 C   0  0  0  0  0  0  0  0  0  0  0  0
  -86.3356   31.8693   -0.3355 C   0  0  0  0  0  0  0  0  0  0  0  0
  -86.2497   33.0459   -1.0247 C   0  0  0  0  0  0  0  0  0  0  0  0
  -85.0424   33.6907   -1.1151 C   0  0  0  0  0  0  0  0  0  0  0  0
  -83.8909   33.1871   -0.5256 C   0  0  0  0  0  0  0  0  0  0  0  0
  -81.5933   31.9420    0.7165 N   0  0  0  0  0  0  0  0  0  0  0  0
  -82.7683   31.4435    0.8064 C   0  0  0  0  0  0  0  0  0  0  0  0
  -82.8681   30.2485    1.6012 N   0  0  0  0  0  0  0  0  0  0  0  0
  -81.4426   32.7990    0.1633 H   0  0  0  0  0  0  0  0  0  0  0  0
  -83.4315   30.2377    2.4774 H   0  0  0  0  0  0  0  0  0  0  0  0
  -82.3644   29.3932    1.2816 H   0  0  0  0  0  0  0  0  0  0  0  0
  -91.4966   26.9257   -0.2014 C   0  0  0  0  0  0  0  0  0  0  0  0
  -90.8691   26.8127    1.1133 C   0  0  0  0  0  0  0  0  0  0  0  0
  -90.2318   25.6705    1.5563 C   0  0  0  0  0  0  0  0  0  0  0  0
  -89.6504   25.6005    2.8124 C   0  0  0  0  0  0  0  0  0  0  0  0
  -89.6964   26.6857    3.6597 C   0  0  0  0  0  0  0  0  0  0  0  0
  -90.3212   27.8233    3.2411 C   0  0  0  0  0  0  0  0  0  0  0  0
  -90.9032   27.8862    1.9774 C   0  0  0  0  0  0  0  0  0  0  0  0
 24 25  2  0  0  0
 25 26  1  0  0  0
 25 18  1  0  0  0
 18 19  2  0  0  0
 19 20  1  0  0  0
 20 21  2  0  0  0
 21 17  1  0  0  0
 17 13  1  0  0  0
 13 14  1  0  0  0
 14 15  2  0  0  0
 14  1  1  0  0  0
  1  2  1  0  0  0
  2  3  1  0  0  0
  3  4  1  0  0  0
  4  5  1  0  0  0
  5  6  1  0  0  0
  6  7  1  0  0  0
  7  8  1  0  0  0
  7 30  1  0  0  0
 30 31  1  0  0  0
 31 32  2  0  0  0
 32 33  1  0  0  0
 33 34  2  0  0  0
 34 35  1  0  0  0
 35 36  2  0  0  0
  7  9  1  0  0  0
  9 10  2  0  0  0
  9 11  1  0  0  0
 21 22  1  0  0  0
 22 23  2  0  0  0
 23 18  1  0  0  0
 11  1  1  0  0  0
 11  4  1  0  0  0
 36 31  1  0  0  0
 24 27  1  0  0  0
 26 28  1  0  0  0
 26 29  1  0  0  0
 13 16  1  0  0  0
  8 12  1  0  0  0
M  END
> <minimizedAffinity>
-8.29852

> <CNNscore>
0.2101377994

> <CNNaffinity>
6.0718703270

> <CNN_VS>
1.2759294510

> <CNNaffinity_variance>
0.1186302751

$$$$
[H]N=C(c1c([H])c([H])c(C([H])([H])N([H])C(=O)C2([H])N3C(=O)[C@](O[H])(C([H])([H])c4c([H])c([H])c([H])c([H])c4[H])C([H])([H])C([H])([H])[C@]3([H])C([H])([H])C2([H])[H])c([H])c1[H])N([H])[H]


 36 39  0  0  0  0  0  0  0  0999 V2000
  -89.1051   26.2265    0.2307 C   0  0  0  0  0  0  0  0  0  0  0  0
  -90.4554   25.9807    0.8699 C   0  0  0  0  0  0  0  0  0  0  0  0
  -90.8952   27.4052    1.1718 C   0  0  0  0  0  0  0  0  0  0  0  0
  -90.5453   28.0995   -0.1245 C   0  0  0  0  0  0  0  0  0  0  0  0
  -90.2936   29.5710    0.0707 C   0  0  0  0  0  0  0  0  0  0  0  0
  -89.7418   30.2099   -1.1611 C   0  0  0  0  0  0  0  0  0  0  0  0
  -89.2998   29.2400   -2.2208 C   0  0  0  0  0  0  0  0  0  0  0  0
  -90.3961   28.7554   -2.9541 O   0  0  0  0  0  0  0  0  0  0  0  0
  -88.5702   28.1264   -1.5595 C   0  0  0  0  0  0  0  0  0  0  0  0
  -87.4101   27.7680   -1.8347 O   0  0  0  0  0  0  0  0  0  0  0  0
  -89.2955   27.4379   -0.5303 N   0  0  0  0  0  0  0  0  0  0  0  0
  -91.0330   29.5290   -3.0031 H   0  0  0  0  0  0  0  0  0  0  0  0
  -86.9128   27.0765    1.0510 N   0  0  0  0  0  0  0  0  0  0  0  0
  -88.1416   26.4430    1.3687 C   0  0  0  0  0  0  0  0  0  0  0  0
  -88.3964   26.0906    2.5279 O   0  0  0  0  0  0  0  0  0  0  0  0
  -86.6800   27.3825    0.0631 H   0  0  0  0  0  0  0  0  0  0  0  0
  -85.8815   27.3576    2.0347 C   0  0  0  0  0  0  0  0  0  0  0  0
  -83.6920   30.7808    0.7280 C   0  0  0  0  0  0  0  0  0  0  0  0
  -83.1973   29.9349    1.6810 C   0  0  0  0  0  0  0  0  0  0  0  0
  -83.8759   28.8086    2.1334 C   0  0  0  0  0  0  0  0  0  0  0  0
  -85.1020   28.5333    1.5971 C   0  0  0  0  0  0  0  0  0  0  0  0
  -85.6236   29.3645    0.6388 C   0  0  0  0  0  0  0  0  0  0  0  0
  -84.9449   30.4886    0.1881 C   0  0  0  0  0  0  0  0  0  0  0  0
  -81.7436   32.2235    0.5343 N   0  0  0  0  0  0  0  0  0  0  0  0
  -82.9661   31.9555    0.2680 C   0  0  0  0  0  0  0  0  0  0  0  0
  -83.6398   32.9221   -0.5577 N   0  0  0  0  0  0  0  0  0  0  0  0
  -81.1947   31.5772    1.1210 H   0  0  0  0  0  0  0  0  0  0  0  0
  -83.9870   32.6629   -1.5050 H   0  0  0  0  0  0  0  0  0  0  0  0
  -83.7732   33.8878   -0.1876 H   0  0  0  0  0  0  0  0  0  0  0  0
  -88.4154   29.9582   -3.2126 C   0  0  0  0  0  0  0  0  0  0  0  0
  -88.2718   31.3859   -2.9367 C   0  0  0  0  0  0  0  0  0  0  0  0
  -87.3435   31.9002   -2.0530 C   0  0  0  0  0  0  0  0  0  0  0  0
  -87.2393   33.2615   -1.8152 C   0  0  0  0  0  0  0  0  0  0  0  0
  -88.0726   34.1452   -2.4651 C   0  0  0  0  0  0  0  0  0  0  0  0
  -88.9964   33.6574   -3.3419 C   0  0  0  0  0  0  0  0  0  0  0  0
  -89.0952   32.2880   -3.5758 C   0  0  0  0  0  0  0  0  0  0  0  0
 24 25  2  0  0  0
 25 26  1  0  0  0
 25 18  1  0  0  0
 18 19  2  0  0  0
 19 20  1  0  0  0
 20 21  2  0  0  0
 21 17  1  0  0  0
 17 13  1  0  0  0
 13 14  1  0  0  0
 14 15  2  0  0  0
 14  1  1  0  0  0
  1  2  1  0  0  0
  2  3  1  0  0  0
  3  4  1  0  0  0
  4  5  1  0  0  0
  5  6  1  0  0  0
  6  7  1  0  0  0
  7  8  1  0  0  0
  7 30  1  0  0  0
 30 31  1  0  0  0
 31 32  2  0  0  0
 32 33  1  0  0  0
 33 34  2  0  0  0
 34 35  1  0  0  0
 35 36  2  0  0  0
  7  9  1  0  0  0
  9 10  2  0  0  0
  9 11  1  0  0  0
 21 22  1  0  0  0
 22 23  2  0  0  0
 23 18  1  0  0  0
 11  1  1  0  0  0
 11  4  1  0  0  0
 36 31  1  0  0  0
 24 27  1  0  0  0
 26 28  1  0  0  0
 26 29  1  0  0  0
 13 16  1  0  0  0
  8 12  1  0  0  0
M  END
> <minimizedAffinity>
-9.46267

> <CNNscore>
0.1256892234

> <CNNaffinity>
6.1982240677

> <CNN_VS>
0.7790499926

> <CNNaffinity_variance>
0.1025238037

$$$$
[H]N=C(c1c([H])c([H])c(C([H])([H])N([H])C(=O)C2([H])N3C(=O)[C@](O[H])(C([H])([H])c4c([H])c([H])c([H])c([H])c4[H])C([H])([H])C([H])([H])[C@]3([H])C([H])([H])C2([H])[H])c([H])c1[H])N([H])[H]


 36 39  0  0  0  0  0  0  0  0999 V2000
  -88.0599   30.5287   -3.5942 C   0  0  0  0  0  0  0  0  0  0  0  0
  -88.1964   30.9947   -5.0282 C   0  0  0  0  0  0  0  0  0  0  0  0
  -88.6317   32.4376   -4.8225 C   0  0  0  0  0  0  0  0  0  0  0  0
  -87.6707   32.8813   -3.7435 C   0  0  0  0  0  0  0  0  0  0  0  0
  -88.2258   34.0133   -2.9206 C   0  0  0  0  0  0  0  0  0  0  0  0
  -87.3748   34.3050   -1.7287 C   0  0  0  0  0  0  0  0  0  0  0  0
  -86.3260   33.2669   -1.4436 C   0  0  0  0  0  0  0  0  0  0  0  0
  -85.2130   33.4253   -2.2864 O   0  0  0  0  0  0  0  0  0  0  0  0
  -86.9383   31.9238   -1.6203 C   0  0  0  0  0  0  0  0  0  0  0  0
  -86.9612   31.0286   -0.7556 O   0  0  0  0  0  0  0  0  0  0  0  0
  -87.5380   31.6822   -2.9015 N   0  0  0  0  0  0  0  0  0  0  0  0
  -85.1305   34.4165   -2.4174 H   0  0  0  0  0  0  0  0  0  0  0  0
  -89.6866   30.2323   -1.7320 N   0  0  0  0  0  0  0  0  0  0  0  0
  -89.4555   30.1997   -3.1312 C   0  0  0  0  0  0  0  0  0  0  0  0
  -90.3646   29.9133   -3.9212 O   0  0  0  0  0  0  0  0  0  0  0  0
  -88.9178   30.4745   -1.0434 H   0  0  0  0  0  0  0  0  0  0  0  0
  -90.9756   29.9419   -1.1285 C   0  0  0  0  0  0  0  0  0  0  0  0
  -90.6590   26.3477    1.1521 C   0  0  0  0  0  0  0  0  0  0  0  0
  -91.3803   26.3989   -0.0079 C   0  0  0  0  0  0  0  0  0  0  0  0
  -91.5075   27.5473   -0.7817 C   0  0  0  0  0  0  0  0  0  0  0  0
  -90.8786   28.6844   -0.3599 C   0  0  0  0  0  0  0  0  0  0  0  0
  -90.1476   28.6629    0.8005 C   0  0  0  0  0  0  0  0  0  0  0  0
  -90.0214   27.5156    1.5719 C   0  0  0  0  0  0  0  0  0  0  0  0
  -91.3479   24.1451    1.9195 N   0  0  0  0  0  0  0  0  0  0  0  0
  -90.5383   25.1354    1.9485 C   0  0  0  0  0  0  0  0  0  0  0  0
  -89.4315   24.9961    2.8572 N   0  0  0  0  0  0  0  0  0  0  0  0
  -92.1659   24.1718    1.2923 H   0  0  0  0  0  0  0  0  0  0  0  0
  -88.4529   24.9598    2.5021 H   0  0  0  0  0  0  0  0  0  0  0  0
  -89.6299   24.9321    3.8789 H   0  0  0  0  0  0  0  0  0  0  0  0
  -85.8153   33.4520   -0.0341 C   0  0  0  0  0  0  0  0  0  0  0  0
  -84.7227   32.5459    0.3125 C   0  0  0  0  0  0  0  0  0  0  0  0
  -83.5214   32.5076   -0.3677 C   0  0  0  0  0  0  0  0  0  0  0  0
  -82.5090   31.6312   -0.0106 C   0  0  0  0  0  0  0  0  0  0  0  0
  -82.6815   30.7656    1.0470 C   0  0  0  0  0  0  0  0  0  0  0  0
  -83.8606   30.7876    1.7318 C   0  0  0  0  0  0  0  0  0  0  0  0
  -84.8736   31.6712    1.3672 C   0  0  0  0  0  0  0  0  0  0  0  0
 24 25  2  0  0  0
 25 26  1  0  0  0
 25 18  1  0  0  0
 18 19  2  0  0  0
 19 20  1  0  0  0
 20 21  2  0  0  0
 21 17  1  0  0  0
 17 13  1  0  0  0
 13 14  1  0  0  0
 14 15  2  0  0  0
 14  1  1  0  0  0
  1  2  1  0  0  0
  2  3  1  0  0  0
  3  4  1  0  0  0
  4  5  1  0  0  0
  5  6  1  0  0  0
  6  7  1  0  0  0
  7  8  1  0  0  0
  7 30  1  0  0  0
 30 31  1  0  0  0
 31 32  2  0  0  0
 32 33  1  0  0  0
 33 34  2  0  0  0
 34 35  1  0  0  0
 35 36  2  0  0  0
  7  9  1  0  0  0
  9 10  2  0  0  0
  9 11  1  0  0  0
 21 22  1  0  0  0
 22 23  2  0  0  0
 23 18  1  0  0  0
 11  1  1  0  0  0
 11  4  1  0  0  0
 36 31  1  0  0  0
 24 27  1  0  0  0
 26 28  1  0  0  0
 26 29  1  0  0  0
 13 16  1  0  0  0
  8 12  1  0  0  0
M  END
> <minimizedAffinity>
-8.99941

> <CNNscore>
0.1214547381

> <CNNaffinity>
5.9373879433

> <CNN_VS>
0.7211238742

> <CNNaffinity_variance>
0.0921097994

$$$$
[H]N=C(c1c([H])c([H])c(C([H])([H])N([H])C(=O)C2([H])N3C(=O)[C@](O[H])(C([H])([H])c4c([H])c([H])c([H])c([H])c4[H])C([H])([H])C([H])([H])[C@]3([H])C([H])([H])C2([H])[H])c([H])c1[H])N([H])[H]


 36 39  0  0  0  0  0  0  0  0999 V2000
  -90.0111   28.3760   -1.7401 C   0  0  0  0  0  0  0  0  0  0  0  0
  -88.8565   28.2562   -2.7121 C   0  0  0  0  0  0  0  0  0  0  0  0
  -87.7264   27.8675   -1.7711 C   0  0  0  0  0  0  0  0  0  0  0  0
  -88.4002   26.8100   -0.9270 C   0  0  0  0  0  0  0  0  0  0  0  0
  -87.7678   26.6827    0.4334 C   0  0  0  0  0  0  0  0  0  0  0  0
  -88.5625   25.7980    1.3365 C   0  0  0  0  0  0  0  0  0  0  0  0
  -89.9304   25.4492    0.8204 C   0  0  0  0  0  0  0  0  0  0  0  0
  -89.8647   24.4240   -0.1384 O   0  0  0  0  0  0  0  0  0  0  0  0
  -90.5388   26.6767    0.2434 C   0  0  0  0  0  0  0  0  0  0  0  0
  -91.6335   27.1611    0.5852 O   0  0  0  0  0  0  0  0  0  0  0  0
  -89.7721   27.3217   -0.7839 N   0  0  0  0  0  0  0  0  0  0  0  0
  -89.1138   23.8340    0.1693 H   0  0  0  0  0  0  0  0  0  0  0  0
  -89.2188   30.7337   -1.8633 N   0  0  0  0  0  0  0  0  0  0  0  0
  -89.8747   29.7335   -1.1007 C   0  0  0  0  0  0  0  0  0  0  0  0
  -90.3084   29.9778    0.0329 O   0  0  0  0  0  0  0  0  0  0  0  0
  -88.8411   30.5391   -2.8345 H   0  0  0  0  0  0  0  0  0  0  0  0
  -89.0102   32.0909   -1.3893 C   0  0  0  0  0  0  0  0  0  0  0  0
  -84.9447   32.4554   -0.1408 C   0  0  0  0  0  0  0  0  0  0  0  0
  -85.6184   33.5039   -0.7023 C   0  0  0  0  0  0  0  0  0  0  0  0
  -86.9425   33.4288   -1.1205 C   0  0  0  0  0  0  0  0  0  0  0  0
  -87.6047   32.2443   -0.9620 C   0  0  0  0  0  0  0  0  0  0  0  0
  -86.9540   31.1749   -0.4015 C   0  0  0  0  0  0  0  0  0  0  0  0
  -85.6321   31.2514    0.0156 C   0  0  0  0  0  0  0  0  0  0  0  0
  -82.6788   33.3361   -0.2121 N   0  0  0  0  0  0  0  0  0  0  0  0
  -83.5580   32.5540    0.2902 C   0  0  0  0  0  0  0  0  0  0  0  0
  -83.0939   31.7217    1.3681 N   0  0  0  0  0  0  0  0  0  0  0  0
  -82.9367   33.9634   -0.9888 H   0  0  0  0  0  0  0  0  0  0  0  0
  -83.4865   31.8253    2.3274 H   0  0  0  0  0  0  0  0  0  0  0  0
  -82.3560   31.0125    1.1686 H   0  0  0  0  0  0  0  0  0  0  0  0
  -90.7662   24.9087    1.9566 C   0  0  0  0  0  0  0  0  0  0  0  0
  -90.3559   25.4054    3.2681 C   0  0  0  0  0  0  0  0  0  0  0  0
  -90.6770   26.6631    3.7397 C   0  0  0  0  0  0  0  0  0  0  0  0
  -90.2667   27.0998    4.9893 C   0  0  0  0  0  0  0  0  0  0  0  0
  -89.5178   26.2763    5.8008 C   0  0  0  0  0  0  0  0  0  0  0  0
  -89.1901   25.0304    5.3535 C   0  0  0  0  0  0  0  0  0  0  0  0
  -89.6060   24.5983    4.0966 C   0  0  0  0  0  0  0  0  0  0  0  0
 24 25  2  0  0  0
 25 26  1  0  0  0
 25 18  1  0  0  0
 18 19  2  0  0  0
 19 20  1  0  0  0
 20 21  2  0  0  0
 21 17  1  0  0  0
 17 13  1  0  0  0
 13 14  1  0  0  0
 14 15  2  0  0  0
 14  1  1  0  0  0
  1  2  1  0  0  0
  2  3  1  0  0  0
  3  4  1  0  0  0
  4  5  1  0  0  0
  5  6  1  0  0  0
  6  7  1  0  0  0
  7  8  1  0  0  0
  7 30  1  0  0  0
 30 31  1  0  0  0
 31 32  2  0  0  0
 32 33  1  0  0  0
 33 34  2  0  0  0
 34 35  1  0  0  0
 35 36  2  0  0  0
  7  9  1  0  0  0
  9 10  2  0  0  0
  9 11  1  0  0  0
 21 22  1  0  0  0
 22 23  2  0  0  0
 23 18  1  0  0  0
 11  1  1  0  0  0
 11  4  1  0  0  0
 36 31  1  0  0  0
 24 27  1  0  0  0
 26 28  1  0  0  0
 26 29  1  0  0  0
 13 16  1  0  0  0
  8 12  1  0  0  0
M  END
> <minimizedAffinity>
-8.82047

> <CNNscore>
0.1091083586

> <CNNaffinity>
5.9682173729

> <CNN_VS>
0.6511824131

> <CNNaffinity_variance>
0.0655684844

$$$$
[H]N=C(c1c([H])c([H])c(C([H])([H])N([H])C(=O)C2([H])N3C(=O)[C@](O[H])(C([H])([H])c4c([H])c([H])c([H])c([H])c4[H])C([H])([H])C([H])([H])[C@]3([H])C([H])([H])C2([H])[H])c([H])c1[H])N([H])[H]


 36 39  0  0  0  0  0  0  0  0999 V2000
  -90.3635   28.0908    1.2214 C   0  0  0  0  0  0  0  0  0  0  0  0
  -90.7182   27.7275    2.6477 C   0  0  0  0  0  0  0  0  0  0  0  0
  -89.6214   26.7246    2.9713 C   0  0  0  0  0  0  0  0  0  0  0  0
  -88.4052   27.4352    2.4229 C   0  0  0  0  0  0  0  0  0  0  0  0
  -87.3090   26.4744    2.0464 C   0  0  0  0  0  0  0  0  0  0  0  0
  -86.2013   27.1536    1.3105 C   0  0  0  0  0  0  0  0  0  0  0  0
  -86.5182   28.5527    0.8619 C   0  0  0  0  0  0  0  0  0  0  0  0
  -86.3858   29.4672    1.9204 O   0  0  0  0  0  0  0  0  0  0  0  0
  -87.9019   28.5667    0.3188 C   0  0  0  0  0  0  0  0  0  0  0  0
  -88.2190   28.9527   -0.8215 O   0  0  0  0  0  0  0  0  0  0  0  0
  -88.9203   28.0908    1.2108 N   0  0  0  0  0  0  0  0  0  0  0  0
  -85.6225   29.1152    2.4683 H   0  0  0  0  0  0  0  0  0  0  0  0
  -90.2568   26.7451   -0.8713 N   0  0  0  0  0  0  0  0  0  0  0  0
  -90.9153   26.9827    0.3624 C   0  0  0  0  0  0  0  0  0  0  0  0
  -91.8940   26.3057    0.7036 O   0  0  0  0  0  0  0  0  0  0  0  0
  -89.4185   27.3174   -1.1774 H   0  0  0  0  0  0  0  0  0  0  0  0
  -90.6653   25.7136   -1.8089 C   0  0  0  0  0  0  0  0  0  0  0  0
  -93.0759   27.5319   -4.8258 C   0  0  0  0  0  0  0  0  0  0  0  0
  -93.1256   26.1877   -4.5828 C   0  0  0  0  0  0  0  0  0  0  0  0
  -92.3598   25.5557   -3.6093 C   0  0  0  0  0  0  0  0  0  0  0  0
  -91.5129   26.3188   -2.8562 C   0  0  0  0  0  0  0  0  0  0  0  0
  -91.4420   27.6705   -3.0777 C   0  0  0  0  0  0  0  0  0  0  0  0
  -92.2073   28.3001   -4.0499 C   0  0  0  0  0  0  0  0  0  0  0  0
  -94.9979   28.7743   -5.6491 N   0  0  0  0  0  0  0  0  0  0  0  0
  -93.8856   28.1748   -5.8504 C   0  0  0  0  0  0  0  0  0  0  0  0
  -93.4359   28.1596   -7.2170 N   0  0  0  0  0  0  0  0  0  0  0  0
  -95.3850   28.8266   -4.6948 H   0  0  0  0  0  0  0  0  0  0  0  0
  -92.5548   28.6423   -7.4926 H   0  0  0  0  0  0  0  0  0  0  0  0
  -94.0107   27.6552   -7.9258 H   0  0  0  0  0  0  0  0  0  0  0  0
  -85.5166   28.9760   -0.1867 C   0  0  0  0  0  0  0  0  0  0  0  0
  -84.7125   30.1299    0.2092 C   0  0  0  0  0  0  0  0  0  0  0  0
  -85.1053   31.4377    0.0027 C   0  0  0  0  0  0  0  0  0  0  0  0
  -84.3129   32.5067    0.3899 C   0  0  0  0  0  0  0  0  0  0  0  0
  -83.0972   32.2848    0.9985 C   0  0  0  0  0  0  0  0  0  0  0  0
  -82.6909   31.0005    1.2115 C   0  0  0  0  0  0  0  0  0  0  0  0
  -83.4926   29.9311    0.8197 C   0  0  0  0  0  0  0  0  0  0  0  0
 24 25  2  0  0  0
 25 26  1  0  0  0
 25 18  1  0  0  0
 18 19  2  0  0  0
 19 20  1  0  0  0
 20 21  2  0  0  0
 21 17  1  0  0  0
 17 13  1  0  0  0
 13 14  1  0  0  0
 14 15  2  0  0  0
 14  1  1  0  0  0
  1  2  1  0  0  0
  2  3  1  0  0  0
  3  4  1  0  0  0
  4  5  1  0  0  0
  5  6  1  0  0  0
  6  7  1  0  0  0
  7  8  1  0  0  0
  7 30  1  0  0  0
 30 31  1  0  0  0
 31 32  2  0  0  0
 32 33  1  0  0  0
 33 34  2  0  0  0
 34 35  1  0  0  0
 35 36  2  0  0  0
  7  9  1  0  0  0
  9 10  2  0  0  0
  9 11  1  0  0  0
 21 22  1  0  0  0
 22 23  2  0  0  0
 23 18  1  0  0  0
 11  1  1  0  0  0
 11  4  1  0  0  0
 36 31  1  0  0  0
 24 27  1  0  0  0
 26 28  1  0  0  0
 26 29  1  0  0  0
 13 16  1  0  0  0
  8 12  1  0  0  0
M  END
> <minimizedAffinity>
-7.90678

> <CNNscore>
0.1012617275

> <CNNaffinity>
5.4227352142

> <CNN_VS>
0.5491155386

> <CNNaffinity_variance>
0.1100354642

$$$$
[H]N=C(c1c([H])c([H])c(C([H])([H])N([H])C(=O)C2([H])N3C(=O)[C@](O[H])(C([H])([H])c4c([H])c([H])c([H])c([H])c4[H])C([H])([H])C([H])([H])[C@]3([H])C([H])([H])C2([H])[H])c([H])c1[H])N([H])[H]


 36 39  0  0  0  0  0  0  0  0999 V2000
  -84.5329   29.5353    0.9022 C   0  0  0  0  0  0  0  0  0  0  0  0
  -84.0341   29.1279    2.2724 C   0  0  0  0  0  0  0  0  0  0  0  0
  -85.3490   28.8885    2.9986 C   0  0  0  0  0  0  0  0  0  0  0  0
  -86.1120   28.0916    1.9654 C   0  0  0  0  0  0  0  0  0  0  0  0
  -87.6022   28.2317    2.1286 C   0  0  0  0  0  0  0  0  0  0  0  0
  -88.3472   27.6238    0.9862 C   0  0  0  0  0  0  0  0  0  0  0  0
  -87.4889   27.2560   -0.1916 C   0  0  0  0  0  0  0  0  0  0  0  0
  -86.8194   26.0404    0.0285 O   0  0  0  0  0  0  0  0  0  0  0  0
  -86.5210   28.3596   -0.4266 C   0  0  0  0  0  0  0  0  0  0  0  0
  -86.3865   28.9767   -1.4994 O   0  0  0  0  0  0  0  0  0  0  0  0
  -85.6977   28.7085    0.6957 N   0  0  0  0  0  0  0  0  0  0  0  0
  -87.4627   25.4876    0.5643 H   0  0  0  0  0  0  0  0  0  0  0  0
  -85.4460   31.6002   -0.1485 N   0  0  0  0  0  0  0  0  0  0  0  0
  -84.9095   30.9899    1.0142 C   0  0  0  0  0  0  0  0  0  0  0  0
  -84.7631   31.6326    2.0621 O   0  0  0  0  0  0  0  0  0  0  0  0
  -85.5759   31.0631   -1.0532 H   0  0  0  0  0  0  0  0  0  0  0  0
  -85.8585   32.9920   -0.2018 C   0  0  0  0  0  0  0  0  0  0  0  0
  -88.9164   33.4239   -3.1484 C   0  0  0  0  0  0  0  0  0  0  0  0
  -87.6430   33.8699   -3.3669 C   0  0  0  0  0  0  0  0  0  0  0  0
  -86.6173   33.7475   -2.4358 C   0  0  0  0  0  0  0  0  0  0  0  0
  -86.8975   33.1501   -1.2395 C   0  0  0  0  0  0  0  0  0  0  0  0
  -88.1668   32.6927   -0.9924 C   0  0  0  0  0  0  0  0  0  0  0  0
  -89.1897   32.8155   -1.9228 C   0  0  0  0  0  0  0  0  0  0  0  0
  -90.8813   34.4668   -4.1316 N   0  0  0  0  0  0  0  0  0  0  0  0
  -89.9767   33.5619   -4.1359 C   0  0  0  0  0  0  0  0  0  0  0  0
  -90.0518   32.6252   -5.2254 N   0  0  0  0  0  0  0  0  0  0  0  0
  -90.8929   35.1744   -3.3817 H   0  0  0  0  0  0  0  0  0  0  0  0
  -89.2879   32.5678   -5.9313 H   0  0  0  0  0  0  0  0  0  0  0  0
  -90.8873   32.0050   -5.2934 H   0  0  0  0  0  0  0  0  0  0  0  0
  -88.3704   27.0376   -1.3986 C   0  0  0  0  0  0  0  0  0  0  0  0
  -89.6579   27.7228   -1.3104 C   0  0  0  0  0  0  0  0  0  0  0  0
  -90.8228   27.1035   -0.9023 C   0  0  0  0  0  0  0  0  0  0  0  0
  -92.0266   27.7868   -0.8343 C   0  0  0  0  0  0  0  0  0  0  0  0
  -92.0885   29.1194   -1.1779 C   0  0  0  0  0  0  0  0  0  0  0  0
  -90.9491   29.7495   -1.5836 C   0  0  0  0  0  0  0  0  0  0  0  0
  -89.7429   29.0563   -1.6495 C   0  0  0  0  0  0  0  0  0  0  0  0
 24 25  2  0  0  0
 25 26  1  0  0  0
 25 18  1  0  0  0
 18 19  2  0  0  0
 19 20  1  0  0  0
 20 21  2  0  0  0
 21 17  1  0  0  0
 17 13  1  0  0  0
 13 14  1  0  0  0
 14 15  2  0  0  0
 14  1  1  0  0  0
  1  2  1  0  0  0
  2  3  1  0  0  0
  3  4  1  0  0  0
  4  5  1  0  0  0
  5  6  1  0  0  0
  6  7  1  0  0  0
  7  8  1  0  0  0
  7 30  1  0  0  0
 30 31  1  0  0  0
 31 32  2  0  0  0
 32 33  1  0  0  0
 33 34  2  0  0  0
 34 35  1  0  0  0
 35 36  2  0  0  0
  7  9  1  0  0  0
  9 10  2  0  0  0
  9 11  1  0  0  0
 21 22  1  0  0  0
 22 23  2  0  0  0
 23 18  1  0  0  0
 11  1  1  0  0  0
 11  4  1  0  0  0
 36 31  1  0  0  0
 24 27  1  0  0  0
 26 28  1  0  0  0
 26 29  1  0  0  0
 13 16  1  0  0  0
  8 12  1  0  0  0
M  END
> <minimizedAffinity>
-8.10074

> <CNNscore>
0.0931577459

> <CNNaffinity>
5.9419794083

> <CNN_VS>
0.5535414219

> <CNNaffinity_variance>
0.2086008042

$$$$
[H]N=C(c1c([H])c([H])c(C([H])([H])N([H])C(=O)C2([H])N3C(=O)[C@](O[H])(C([H])([H])c4c([H])c([H])c([H])c([H])c4[H])C([H])([H])C([H])([H])[C@]3([H])C([H])([H])C2([H])[H])c([H])c1[H])N([H])[H]


 36 39  0  0  0  0  0  0  0  0999 V2000
  -90.7573   27.3896   -2.4058 C   0  0  0  0  0  0  0  0  0  0  0  0
  -92.2674   27.4980   -2.3957 C   0  0  0  0  0  0  0  0  0  0  0  0
  -92.4513   28.9180   -1.8823 C   0  0  0  0  0  0  0  0  0  0  0  0
  -91.4288   29.6622   -2.7103 C   0  0  0  0  0  0  0  0  0  0  0  0
  -90.9522   30.9171   -2.0285 C   0  0  0  0  0  0  0  0  0  0  0  0
  -89.7941   31.5331   -2.7419 C   0  0  0  0  0  0  0  0  0  0  0  0
  -89.1779   30.6598   -3.7987 C   0  0  0  0  0  0  0  0  0  0  0  0
  -89.9326   30.6880   -4.9836 O   0  0  0  0  0  0  0  0  0  0  0  0
  -89.0824   29.2762   -3.2636 C   0  0  0  0  0  0  0  0  0  0  0  0
  -88.0344   28.6081   -3.1906 O   0  0  0  0  0  0  0  0  0  0  0  0
  -90.3166   28.7040   -2.8069 N   0  0  0  0  0  0  0  0  0  0  0  0
  -90.2886   31.6245   -5.0377 H   0  0  0  0  0  0  0  0  0  0  0  0
  -89.2777   27.8454   -0.4552 N   0  0  0  0  0  0  0  0  0  0  0  0
  -90.3543   27.0890   -0.9854 C   0  0  0  0  0  0  0  0  0  0  0  0
  -90.9251   26.2275   -0.3037 O   0  0  0  0  0  0  0  0  0  0  0  0
  -88.7786   28.5853   -1.0273 H   0  0  0  0  0  0  0  0  0  0  0  0
  -88.7723   27.6764    0.8961 C   0  0  0  0  0  0  0  0  0  0  0  0
  -84.9019   29.4406    1.2516 C   0  0  0  0  0  0  0  0  0  0  0  0
  -85.6777   29.6330    0.1428 C   0  0  0  0  0  0  0  0  0  0  0  0
  -86.9437   29.0791   -0.0127 C   0  0  0  0  0  0  0  0  0  0  0  0
  -87.4379   28.3015    0.9961 C   0  0  0  0  0  0  0  0  0  0  0  0
  -86.6817   28.0910    2.1209 C   0  0  0  0  0  0  0  0  0  0  0  0
  -85.4179   28.6446    2.2747 C   0  0  0  0  0  0  0  0  0  0  0  0
  -82.5400   29.4219    1.8317 N   0  0  0  0  0  0  0  0  0  0  0  0
  -83.5783   30.0289    1.3952 C   0  0  0  0  0  0  0  0  0  0  0  0
  -83.3745   31.4048    1.0270 N   0  0  0  0  0  0  0  0  0  0  0  0
  -82.6077   28.4329    2.1155 H   0  0  0  0  0  0  0  0  0  0  0  0
  -83.4967   31.7152    0.0401 H   0  0  0  0  0  0  0  0  0  0  0  0
  -83.1019   32.0847    1.7691 H   0  0  0  0  0  0  0  0  0  0  0  0
  -87.8139   31.2014   -4.1563 C   0  0  0  0  0  0  0  0  0  0  0  0
  -87.6778   32.6370   -3.9203 C   0  0  0  0  0  0  0  0  0  0  0  0
  -88.1645   33.5992   -4.7832 C   0  0  0  0  0  0  0  0  0  0  0  0
  -88.0132   34.9526   -4.5261 C   0  0  0  0  0  0  0  0  0  0  0  0
  -87.3638   35.3742   -3.3868 C   0  0  0  0  0  0  0  0  0  0  0  0
  -86.8758   34.4397   -2.5217 C   0  0  0  0  0  0  0  0  0  0  0  0
  -87.0316   33.0813   -2.7866 C   0  0  0  0  0  0  0  0  0  0  0  0
 24 25  2  0  0  0
 25 26  1  0  0  0
 25 18  1  0  0  0
 18 19  2  0  0  0
 19 20  1  0  0  0
 20 21  2  0  0  0
 21 17  1  0  0  0
 17 13  1  0  0  0
 13 14  1  0  0  0
 14 15  2  0  0  0
 14  1  1  0  0  0
  1  2  1  0  0  0
  2  3  1  0  0  0
  3  4  1  0  0  0
  4  5  1  0  0  0
  5  6  1  0  0  0
  6  7  1  0  0  0
  7  8  1  0  0  0
  7 30  1  0  0  0
 30 31  1  0  0  0
 31 32  2  0  0  0
 32 33  1  0  0  0
 33 34  2  0  0  0
 34 35  1  0  0  0
 35 36  2  0  0  0
  7  9  1  0  0  0
  9 10  2  0  0  0
  9 11  1  0  0  0
 21 22  1  0  0  0
 22 23  2  0  0  0
 23 18  1  0  0  0
 11  1  1  0  0  0
 11  4  1  0  0  0
 36 31  1  0  0  0
 24 27  1  0  0  0
 26 28  1  0  0  0
 26 29  1  0  0  0
 13 16  1  0  0  0
  8 12  1  0  0  0
M  END
> <minimizedAffinity>
-8.55046

> <CNNscore>
0.0909394845

> <CNNaffinity>
5.8079390526

> <CNN_VS>
0.5281710029

> <CNNaffinity_variance>
0.1066397652

$$$$
[H]c1c(OC([H])([H])[H])c(C([H])([H])N(C([H])([H])[H])C([H])([H])[H])c([H])c(OC([H])([H])[H])c1-c1c([H])n(C([H])([H])[H])c(=O)c2c([H])c([H])c([H])c([H])c12


 26 28  0  0  0  0  0  0  0  0999 V2000
  -87.6195   32.8768   -2.0571 C   0  0  0  0  0  0  0  0  0  0  0  0
  -86.9265   31.9157   -1.2813 C   0  0  0  0  0  0  0  0  0  0  0  0
  -87.6332   30.9269   -0.4501 C   0  0  0  0  0  0  0  0  0  0  0  0
  -88.9432   30.9683   -0.4264 C   0  0  0  0  0  0  0  0  0  0  0  0
  -89.6848   31.9468   -1.1367 C   0  0  0  0  0  0  0  0  0  0  0  0
  -89.0234   32.7994   -1.8708 C   0  0  0  0  0  0  0  0  0  0  0  0
  -86.7109   29.8462   -0.0960 C   0  0  0  0  0  0  0  0  0  0  0  0
  -87.2654   28.5398    0.1923 C   0  0  0  0  0  0  0  0  0  0  0  0
  -86.6141   27.6344    1.0021 N   0  0  0  0  0  0  0  0  0  0  0  0
  -87.0990   26.3714    1.3813 C   0  0  0  0  0  0  0  0  0  0  0  0
  -85.4960   28.1618    1.4131 C   0  0  0  0  0  0  0  0  0  0  0  0
  -84.8844   27.1697    2.2381 O   0  0  0  0  0  0  0  0  0  0  0  0
  -84.7869   29.1937    1.3565 C   0  0  0  0  0  0  0  0  0  0  0  0
  -83.5497   29.4495    1.9795 C   0  0  0  0  0  0  0  0  0  0  0  0
  -83.1085   30.8298    1.5661 C   0  0  0  0  0  0  0  0  0  0  0  0
  -83.6636   31.5805    0.8675 C   0  0  0  0  0  0  0  0  0  0  0  0
  -84.9381   31.3644    0.2164 C   0  0  0  0  0  0  0  0  0  0  0  0
  -85.4606   30.1922    0.4770 C   0  0  0  0  0  0  0  0  0  0  0  0
  -86.7135   34.6574   -3.6544 C   0  0  0  0  0  0  0  0  0  0  0  0
  -87.1889   33.7538   -2.9014 O   0  0  0  0  0  0  0  0  0  0  0  0
  -89.7233   30.0189    0.2862 O   0  0  0  0  0  0  0  0  0  0  0  0
  -90.7969   29.5744   -0.5490 C   0  0  0  0  0  0  0  0  0  0  0  0
  -89.7199   33.7933   -2.7477 C   0  0  0  0  0  0  0  0  0  0  0  0
  -90.2907   33.5193   -3.9551 N   0  0  0  0  0  0  0  0  0  0  0  0
  -90.2020   34.6717   -4.8265 C   0  0  0  0  0  0  0  0  0  0  0  0
  -91.1053   32.5390   -4.4122 C   0  0  0  0  0  0  0  0  0  0  0  0
 19 20  1  0  0  0
 20  1  1  0  0  0
  1  2  2  0  0  0
  2  3  1  0  0  0
  3  7  1  0  0  0
  7  8  2  0  0  0
  8  9  1  0  0  0
  9 10  1  0  0  0
  9 11  1  0  0  0
 11 12  2  0  0  0
 11 13  1  0  0  0
 13 14  2  0  0  0
 14 15  1  0  0  0
 15 16  2  0  0  0
 16 17  1  0  0  0
 17 18  2  0  0  0
  3  4  2  0  0  0
  4 21  1  0  0  0
 21 22  1  0  0  0
  4  5  1  0  0  0
  5  6  2  0  0  0
  6 23  1  0  0  0
 23 24  1  0  0  0
 24 25  1  0  0  0
 24 26  1  0  0  0
  6  1  1  0  0  0
 18  7  1  0  0  0
 18 13  1  0  0  0
M  END
> <minimizedAffinity>
-8.08446

> <CNNscore>
0.7272732854

> <CNNaffinity>
6.4557771683

> <CNN_VS>
4.6951141357

> <CNNaffinity_variance>
0.2064899206

$$$$
[H]c1c(OC([H])([H])[H])c(C([H])([H])N(C([H])([H])[H])C([H])([H])[H])c([H])c(OC([H])([H])[H])c1-c1c([H])n(C([H])([H])[H])c(=O)c2c([H])c([H])c([H])c([H])c12


 26 28  0  0  0  0  0  0  0  0999 V2000
  -88.7593   31.4447   -2.7865 C   0  0  0  0  0  0  0  0  0  0  0  0
  -87.7832   30.9478   -1.8887 C   0  0  0  0  0  0  0  0  0  0  0  0
  -88.1485   30.3143   -0.6108 C   0  0  0  0  0  0  0  0  0  0  0  0
  -89.4209   30.2364   -0.3053 C   0  0  0  0  0  0  0  0  0  0  0  0
  -90.4360   30.7707   -1.1395 C   0  0  0  0  0  0  0  0  0  0  0  0
  -90.0735   31.3150   -2.2690 C   0  0  0  0  0  0  0  0  0  0  0  0
  -87.0015   29.5609   -0.0999 C   0  0  0  0  0  0  0  0  0  0  0  0
  -87.2243   28.2086    0.3680 C   0  0  0  0  0  0  0  0  0  0  0  0
  -86.4027   27.6165    1.3030 N   0  0  0  0  0  0  0  0  0  0  0  0
  -86.5728   26.3357    1.8552 C   0  0  0  0  0  0  0  0  0  0  0  0
  -85.4701   28.4606    1.6421 C   0  0  0  0  0  0  0  0  0  0  0  0
  -84.6660   27.7776    2.6043 O   0  0  0  0  0  0  0  0  0  0  0  0
  -85.0392   29.6207    1.4437 C   0  0  0  0  0  0  0  0  0  0  0  0
  -83.9327   30.2637    2.0321 C   0  0  0  0  0  0  0  0  0  0  0  0
  -83.8327   31.6411    1.4292 C   0  0  0  0  0  0  0  0  0  0  0  0
  -84.5273   32.1244    0.6269 C   0  0  0  0  0  0  0  0  0  0  0  0
  -85.6787   31.5062    0.0047 C   0  0  0  0  0  0  0  0  0  0  0  0
  -85.9027   30.2867    0.4263 C   0  0  0  0  0  0  0  0  0  0  0  0
  -88.5835   32.3563   -5.1699 C   0  0  0  0  0  0  0  0  0  0  0  0
  -88.6438   31.9448   -3.9713 O   0  0  0  0  0  0  0  0  0  0  0  0
  -89.8848   29.5840    0.8681 O   0  0  0  0  0  0  0  0  0  0  0  0
  -91.1156   28.9151    0.5757 C   0  0  0  0  0  0  0  0  0  0  0  0
  -91.0764   31.8007   -3.2691 C   0  0  0  0  0  0  0  0  0  0  0  0
  -92.2184   31.1469   -3.6254 N   0  0  0  0  0  0  0  0  0  0  0  0
  -91.9653   30.2667   -4.7463 C   0  0  0  0  0  0  0  0  0  0  0  0
  -93.5308   31.3163   -3.3379 C   0  0  0  0  0  0  0  0  0  0  0  0
 19 20  1  0  0  0
 20  1  1  0  0  0
  1  2  2  0  0  0
  2  3  1  0  0  0
  3  7  1  0  0  0
  7  8  2  0  0  0
  8  9  1  0  0  0
  9 10  1  0  0  0
  9 11  1  0  0  0
 11 12  2  0  0  0
 11 13  1  0  0  0
 13 14  2  0  0  0
 14 15  1  0  0  0
 15 16  2  0  0  0
 16 17  1  0  0  0
 17 18  2  0  0  0
  3  4  2  0  0  0
  4 21  1  0  0  0
 21 22  1  0  0  0
  4  5  1  0  0  0
  5  6  2  0  0  0
  6 23  1  0  0  0
 23 24  1  0  0  0
 24 25  1  0  0  0
 24 26  1  0  0  0
  6  1  1  0  0  0
 18  7  1  0  0  0
 18 13  1  0  0  0
M  END
> <minimizedAffinity>
-7.14397

> <CNNscore>
0.5808397532

> <CNNaffinity>
6.1241350174

> <CNN_VS>
3.5571410656

> <CNNaffinity_variance>
0.1523739249

$$$$
[H]c1c(OC([H])([H])[H])c(C([H])([H])N(C([H])([H])[H])C([H])([H])[H])c([H])c(OC([H])([H])[H])c1-c1c([H])n(C([H])([H])[H])c(=O)c2c([H])c([H])c([H])c([H])c12


 26 28  0  0  0  0  0  0  0  0999 V2000
  -88.3438   27.9281   -0.8004 C   0  0  0  0  0  0  0  0  0  0  0  0
  -87.8449   29.2101   -0.4636 C   0  0  0  0  0  0  0  0  0  0  0  0
  -86.8859   29.4105    0.6355 C   0  0  0  0  0  0  0  0  0  0  0  0
  -86.5113   28.3593    1.3232 C   0  0  0  0  0  0  0  0  0  0  0  0
  -87.0247   27.0621    1.0672 C   0  0  0  0  0  0  0  0  0  0  0  0
  -87.8645   26.9228    0.0779 C   0  0  0  0  0  0  0  0  0  0  0  0
  -86.2591   30.7264    0.4957 C   0  0  0  0  0  0  0  0  0  0  0  0
  -86.9433   31.7304   -0.2923 C   0  0  0  0  0  0  0  0  0  0  0  0
  -86.2650   32.7599   -0.9086 N   0  0  0  0  0  0  0  0  0  0  0  0
  -86.8348   33.7430   -1.7350 C   0  0  0  0  0  0  0  0  0  0  0  0
  -84.9932   32.6426   -0.6515 C   0  0  0  0  0  0  0  0  0  0  0  0
  -84.3646   33.7379   -1.3180 O   0  0  0  0  0  0  0  0  0  0  0  0
  -84.1454   31.9362   -0.0574 C   0  0  0  0  0  0  0  0  0  0  0  0
  -82.7482   32.1023    0.0079 C   0  0  0  0  0  0  0  0  0  0  0  0
  -82.1978   30.9962    0.8707 C   0  0  0  0  0  0  0  0  0  0  0  0
  -82.7861   30.1389    1.3986 C   0  0  0  0  0  0  0  0  0  0  0  0
  -84.2166   29.9240    1.3502 C   0  0  0  0  0  0  0  0  0  0  0  0
  -84.8502   30.8160    0.6303 C   0  0  0  0  0  0  0  0  0  0  0  0
  -89.8620   27.2636   -2.7487 C   0  0  0  0  0  0  0  0  0  0  0  0
  -89.1086   27.5441   -1.7672 O   0  0  0  0  0  0  0  0  0  0  0  0
  -85.5396   28.4310    2.3570 O   0  0  0  0  0  0  0  0  0  0  0  0
  -84.8090   27.2012    2.3981 C   0  0  0  0  0  0  0  0  0  0  0  0
  -88.3707   25.5786   -0.3448 C   0  0  0  0  0  0  0  0  0  0  0  0
  -89.4034   24.9041    0.2358 N   0  0  0  0  0  0  0  0  0  0  0  0
  -89.9075   23.8865   -0.6617 C   0  0  0  0  0  0  0  0  0  0  0  0
  -90.1882   25.1298    1.3160 C   0  0  0  0  0  0  0  0  0  0  0  0
 19 20  1  0  0  0
 20  1  1  0  0  0
  1  2  2  0  0  0
  2  3  1  0  0  0
  3  7  1  0  0  0
  7  8  2  0  0  0
  8  9  1  0  0  0
  9 10  1  0  0  0
  9 11  1  0  0  0
 11 12  2  0  0  0
 11 13  1  0  0  0
 13 14  2  0  0  0
 14 15  1  0  0  0
 15 16  2  0  0  0
 16 17  1  0  0  0
 17 18  2  0  0  0
  3  4  2  0  0  0
  4 21  1  0  0  0
 21 22  1  0  0  0
  4  5  1  0  0  0
  5  6  2  0  0  0
  6 23  1  0  0  0
 23 24  1  0  0  0
 24 25  1  0  0  0
 24 26  1  0  0  0
  6  1  1  0  0  0
 18  7  1  0  0  0
 18 13  1  0  0  0
M  END
> <minimizedAffinity>
-8.27920

> <CNNscore>
0.4299044907

> <CNNaffinity>
6.2555575371

> <CNN_VS>
2.6892921925

> <CNNaffinity_variance>
0.2914817929

$$$$
[H]c1c(OC([H])([H])[H])c(C([H])([H])N(C([H])([H])[H])C([H])([H])[H])c([H])c(OC([H])([H])[H])c1-c1c([H])n(C([H])([H])[H])c(=O)c2c([H])c([H])c([H])c([H])c12


 26 28  0  0  0  0  0  0  0  0999 V2000
  -86.7105   30.3618    0.0309 C   0  0  0  0  0  0  0  0  0  0  0  0
  -87.2513   29.0531    0.0023 C   0  0  0  0  0  0  0  0  0  0  0  0
  -86.6401   27.9395    0.7468 C   0  0  0  0  0  0  0  0  0  0  0  0
  -85.5512   28.1845    1.4343 C   0  0  0  0  0  0  0  0  0  0  0  0
  -84.9343   29.4617    1.4496 C   0  0  0  0  0  0  0  0  0  0  0  0
  -85.5117   30.4260    0.7861 C   0  0  0  0  0  0  0  0  0  0  0  0
  -87.6055   26.8440    0.8559 C   0  0  0  0  0  0  0  0  0  0  0  0
  -87.8916   26.0631   -0.3297 C   0  0  0  0  0  0  0  0  0  0  0  0
  -89.0875   25.3973   -0.4924 N   0  0  0  0  0  0  0  0  0  0  0  0
  -89.4742   24.6648   -1.6273 C   0  0  0  0  0  0  0  0  0  0  0  0
  -89.8338   25.6053    0.5549 C   0  0  0  0  0  0  0  0  0  0  0  0
  -91.0439   24.8872    0.3123 O   0  0  0  0  0  0  0  0  0  0  0  0
  -89.8787   26.1942    1.6604 C   0  0  0  0  0  0  0  0  0  0  0  0
  -90.9223   26.2173    2.6062 C   0  0  0  0  0  0  0  0  0  0  0  0
  -90.4602   27.0503    3.7739 C   0  0  0  0  0  0  0  0  0  0  0  0
  -89.4384   27.5966    3.9047 C   0  0  0  0  0  0  0  0  0  0  0  0
  -88.3447   27.6088    2.9568 C   0  0  0  0  0  0  0  0  0  0  0  0
  -88.5919   26.9179    1.8721 C   0  0  0  0  0  0  0  0  0  0  0  0
  -87.6412   32.5010   -1.0178 C   0  0  0  0  0  0  0  0  0  0  0  0
  -87.1432   31.4682   -0.4749 O   0  0  0  0  0  0  0  0  0  0  0  0
  -84.9216   27.2001    2.2420 O   0  0  0  0  0  0  0  0  0  0  0  0
  -83.6621   27.7042    2.6972 C   0  0  0  0  0  0  0  0  0  0  0  0
  -85.0035   31.8335    0.8364 C   0  0  0  0  0  0  0  0  0  0  0  0
  -83.8459   32.2770    0.2690 N   0  0  0  0  0  0  0  0  0  0  0  0
  -84.1289   33.2897   -0.7257 C   0  0  0  0  0  0  0  0  0  0  0  0
  -82.5699   31.8238    0.2525 C   0  0  0  0  0  0  0  0  0  0  0  0
 19 20  1  0  0  0
 20  1  1  0  0  0
  1  2  2  0  0  0
  2  3  1  0  0  0
  3  7  1  0  0  0
  7  8  2  0  0  0
  8  9  1  0  0  0
  9 10  1  0  0  0
  9 11  1  0  0  0
 11 12  2  0  0  0
 11 13  1  0  0  0
 13 14  2  0  0  0
 14 15  1  0  0  0
 15 16  2  0  0  0
 16 17  1  0  0  0
 17 18  2  0  0  0
  3  4  2  0  0  0
  4 21  1  0  0  0
 21 22  1  0  0  0
  4  5  1  0  0  0
  5  6  2  0  0  0
  6 23  1  0  0  0
 23 24  1  0  0  0
 24 25  1  0  0  0
 24 26  1  0  0  0
  6  1  1  0  0  0
 18  7  1  0  0  0
 18 13  1  0  0  0
M  END
> <minimizedAffinity>
-7.68255

> <CNNscore>
0.4157296121

> <CNNaffinity>
6.2327098846

> <CNN_VS>
2.5911221504

> <CNNaffinity_variance>
0.2014001906

$$$$
[H]c1c(OC([H])([H])[H])c(C([H])([H])N(C([H])([H])[H])C([H])([H])[H])c([H])c(OC([H])([H])[H])c1-c1c([H])n(C([H])([H])[H])c(=O)c2c([H])c([H])c([H])c([H])c12


 26 28  0  0  0  0  0  0  0  0999 V2000
  -85.3088   32.7537   -1.0689 C   0  0  0  0  0  0  0  0  0  0  0  0
  -85.8843   33.4667   -2.1488 C   0  0  0  0  0  0  0  0  0  0  0  0
  -87.3406   33.5247   -2.3582 C   0  0  0  0  0  0  0  0  0  0  0  0
  -88.1083   32.8727   -1.5192 C   0  0  0  0  0  0  0  0  0  0  0  0
  -87.5822   32.0946   -0.4563 C   0  0  0  0  0  0  0  0  0  0  0  0
  -86.2870   32.0765   -0.2966 C   0  0  0  0  0  0  0  0  0  0  0  0
  -87.6535   34.6235   -3.2740 C   0  0  0  0  0  0  0  0  0  0  0  0
  -87.4303   35.9797   -2.8178 C   0  0  0  0  0  0  0  0  0  0  0  0
  -88.1325   37.0471   -3.3347 N   0  0  0  0  0  0  0  0  0  0  0  0
  -88.0241   38.3841   -2.9164 C   0  0  0  0  0  0  0  0  0  0  0  0
  -88.9632   36.6099   -4.2380 C   0  0  0  0  0  0  0  0  0  0  0  0
  -89.6462   37.7664   -4.7228 O   0  0  0  0  0  0  0  0  0  0  0  0
  -89.3744   35.5752   -4.8135 C   0  0  0  0  0  0  0  0  0  0  0  0
  -90.3655   35.4526   -5.8068 C   0  0  0  0  0  0  0  0  0  0  0  0
  -90.4599   33.9953   -6.1786 C   0  0  0  0  0  0  0  0  0  0  0  0
  -89.8482   33.1034   -5.7427 C   0  0  0  0  0  0  0  0  0  0  0  0
  -88.8307   33.1815   -4.7164 C   0  0  0  0  0  0  0  0  0  0  0  0
  -88.6251   34.4000   -4.2826 C   0  0  0  0  0  0  0  0  0  0  0  0
  -82.8959   32.6464   -0.2272 C   0  0  0  0  0  0  0  0  0  0  0  0
  -84.0831   32.6586   -0.6741 O   0  0  0  0  0  0  0  0  0  0  0  0
  -89.5263   32.9191   -1.5893 O   0  0  0  0  0  0  0  0  0  0  0  0
  -90.0346   31.5837   -1.6684 C   0  0  0  0  0  0  0  0  0  0  0  0
  -85.6441   31.3818    0.8635 C   0  0  0  0  0  0  0  0  0  0  0  0
  -85.4137   30.0411    0.9535 N   0  0  0  0  0  0  0  0  0  0  0  0
  -84.2449   29.7851    1.7682 C   0  0  0  0  0  0  0  0  0  0  0  0
  -85.8668   28.9590    0.2772 C   0  0  0  0  0  0  0  0  0  0  0  0
 19 20  1  0  0  0
 20  1  1  0  0  0
  1  2  2  0  0  0
  2  3  1  0  0  0
  3  7  1  0  0  0
  7  8  2  0  0  0
  8  9  1  0  0  0
  9 10  1  0  0  0
  9 11  1  0  0  0
 11 12  2  0  0  0
 11 13  1  0  0  0
 13 14  2  0  0  0
 14 15  1  0  0  0
 15 16  2  0  0  0
 16 17  1  0  0  0
 17 18  2  0  0  0
  3  4  2  0  0  0
  4 21  1  0  0  0
 21 22  1  0  0  0
  4  5  1  0  0  0
  5  6  2  0  0  0
  6 23  1  0  0  0
 23 24  1  0  0  0
 24 25  1  0  0  0
 24 26  1  0  0  0
  6  1  1  0  0  0
 18  7  1  0  0  0
 18 13  1  0  0  0
M  END
> <minimizedAffinity>
-6.27301

> <CNNscore>
0.3387207687

> <CNNaffinity>
5.5421953201

> <CNN_VS>
1.8772566319

> <CNNaffinity_variance>
0.2461544275

$$$$
[H]c1c(OC([H])([H])[H])c(C([H])([H])N(C([H])([H])[H])C([H])([H])[H])c([H])c(OC([H])([H])[H])c1-c1c([H])n(C([H])([H])[H])c(=O)c2c([H])c([H])c([H])c([H])c12


 26 28  0  0  0  0  0  0  0  0999 V2000
  -88.4454   27.2779   -0.5019 C   0  0  0  0  0  0  0  0  0  0  0  0
  -87.7611   28.5108   -0.6343 C   0  0  0  0  0  0  0  0  0  0  0  0
  -86.8102   28.9890    0.3830 C   0  0  0  0  0  0  0  0  0  0  0  0
  -86.6213   28.2446    1.4454 C   0  0  0  0  0  0  0  0  0  0  0  0
  -87.3243   27.0309    1.6568 C   0  0  0  0  0  0  0  0  0  0  0  0
  -88.1507   26.6349    0.7275 C   0  0  0  0  0  0  0  0  0  0  0  0
  -85.9825   30.0517   -0.1910 C   0  0  0  0  0  0  0  0  0  0  0  0
  -84.5870   30.1144    0.1910 C   0  0  0  0  0  0  0  0  0  0  0  0
  -83.8730   31.2927    0.1512 N   0  0  0  0  0  0  0  0  0  0  0  0
  -82.5374   31.4601    0.5542 C   0  0  0  0  0  0  0  0  0  0  0  0
  -84.6550   32.2477   -0.2655 C   0  0  0  0  0  0  0  0  0  0  0  0
  -83.8476   33.4254   -0.2806 O   0  0  0  0  0  0  0  0  0  0  0  0
  -85.8237   32.5035   -0.6390 C   0  0  0  0  0  0  0  0  0  0  0  0
  -86.3731   33.7384   -1.0355 C   0  0  0  0  0  0  0  0  0  0  0  0
  -87.8118   33.4966   -1.4128 C   0  0  0  0  0  0  0  0  0  0  0  0
  -88.3998   32.4900   -1.3881 C   0  0  0  0  0  0  0  0  0  0  0  0
  -87.8799   31.2028   -0.9786 C   0  0  0  0  0  0  0  0  0  0  0  0
  -86.6218   31.2437   -0.6170 C   0  0  0  0  0  0  0  0  0  0  0  0
  -89.9990   26.1231   -2.1738 C   0  0  0  0  0  0  0  0  0  0  0  0
  -89.2365   26.6571   -1.3118 O   0  0  0  0  0  0  0  0  0  0  0  0
  -85.6764   28.5783    2.4522 O   0  0  0  0  0  0  0  0  0  0  0  0
  -84.5966   27.6402    2.4096 C   0  0  0  0  0  0  0  0  0  0  0  0
  -88.8498   25.3130    0.8036 C   0  0  0  0  0  0  0  0  0  0  0  0
  -89.9234   25.0306    1.5949 N   0  0  0  0  0  0  0  0  0  0  0  0
  -90.8462   24.1595    0.8987 C   0  0  0  0  0  0  0  0  0  0  0  0
  -90.4159   25.5598    2.7400 C   0  0  0  0  0  0  0  0  0  0  0  0
 19 20  1  0  0  0
 20  1  1  0  0  0
  1  2  2  0  0  0
  2  3  1  0  0  0
  3  7  1  0  0  0
  7  8  2  0  0  0
  8  9  1  0  0  0
  9 10  1  0  0  0
  9 11  1  0  0  0
 11 12  2  0  0  0
 11 13  1  0  0  0
 13 14  2  0  0  0
 14 15  1  0  0  0
 15 16  2  0  0  0
 16 17  1  0  0  0
 17 18  2  0  0  0
  3  4  2  0  0  0
  4 21  1  0  0  0
 21 22  1  0  0  0
  4  5  1  0  0  0
  5  6  2  0  0  0
  6 23  1  0  0  0
 23 24  1  0  0  0
 24 25  1  0  0  0
 24 26  1  0  0  0
  6  1  1  0  0  0
 18  7  1  0  0  0
 18 13  1  0  0  0
M  END
> <minimizedAffinity>
-7.61036

> <CNNscore>
0.3105377853

> <CNNaffinity>
6.1295957565

> <CNN_VS>
1.9034711123

> <CNNaffinity_variance>
0.1550494283

$$$$
[H]c1c(OC([H])([H])[H])c(C([H])([H])N(C([H])([H])[H])C([H])([H])[H])c([H])c(OC([H])([H])[H])c1-c1c([H])n(C([H])([H])[H])c(=O)c2c([H])c([H])c([H])c([H])c12


 26 28  0  0  0  0  0  0  0  0999 V2000
  -88.2861   33.0406   -2.5224 C   0  0  0  0  0  0  0  0  0  0  0  0
  -87.6570   32.5274   -1.3619 C   0  0  0  0  0  0  0  0  0  0  0  0
  -87.3062   31.1036   -1.2290 C   0  0  0  0  0  0  0  0  0  0  0  0
  -87.6128   30.3004   -2.2185 C   0  0  0  0  0  0  0  0  0  0  0  0
  -88.2959   30.7500   -3.3775 C   0  0  0  0  0  0  0  0  0  0  0  0
  -88.5803   32.0209   -3.4634 C   0  0  0  0  0  0  0  0  0  0  0  0
  -86.3389   30.9439   -0.1413 C   0  0  0  0  0  0  0  0  0  0  0  0
  -85.0895   31.6715   -0.2241 C   0  0  0  0  0  0  0  0  0  0  0  0
  -83.9479   31.2335    0.4120 N   0  0  0  0  0  0  0  0  0  0  0  0
  -82.6826   31.8404    0.3431 C   0  0  0  0  0  0  0  0  0  0  0  0
  -84.2139   30.1257    1.0439 C   0  0  0  0  0  0  0  0  0  0  0  0
  -82.9914   29.7401    1.6732 O   0  0  0  0  0  0  0  0  0  0  0  0
  -85.1215   29.2962    1.2869 C   0  0  0  0  0  0  0  0  0  0  0  0
  -85.0566   28.1165    2.0538 C   0  0  0  0  0  0  0  0  0  0  0  0
  -86.4298   27.4960    2.0520 C   0  0  0  0  0  0  0  0  0  0  0  0
  -87.3918   27.8860    1.5207 C   0  0  0  0  0  0  0  0  0  0  0  0
  -87.5013   29.0839    0.7158 C   0  0  0  0  0  0  0  0  0  0  0  0
  -86.3765   29.7477    0.6195 C   0  0  0  0  0  0  0  0  0  0  0  0
  -88.7853   35.4601   -3.1849 C   0  0  0  0  0  0  0  0  0  0  0  0
  -88.5882   34.2504   -2.8572 O   0  0  0  0  0  0  0  0  0  0  0  0
  -87.2580   28.9249   -2.2223 O   0  0  0  0  0  0  0  0  0  0  0  0
  -88.4139   28.1446   -2.5425 C   0  0  0  0  0  0  0  0  0  0  0  0
  -89.1934   32.6113   -4.6952 C   0  0  0  0  0  0  0  0  0  0  0  0
  -90.5247   32.6214   -4.9889 N   0  0  0  0  0  0  0  0  0  0  0  0
  -90.8283   33.6949   -5.9112 C   0  0  0  0  0  0  0  0  0  0  0  0
  -91.6155   32.0345   -4.4416 C   0  0  0  0  0  0  0  0  0  0  0  0
 19 20  1  0  0  0
 20  1  1  0  0  0
  1  2  2  0  0  0
  2  3  1  0  0  0
  3  7  1  0  0  0
  7  8  2  0  0  0
  8  9  1  0  0  0
  9 10  1  0  0  0
  9 11  1  0  0  0
 11 12  2  0  0  0
 11 13  1  0  0  0
 13 14  2  0  0  0
 14 15  1  0  0  0
 15 16  2  0  0  0
 16 17  1  0  0  0
 17 18  2  0  0  0
  3  4  2  0  0  0
  4 21  1  0  0  0
 21 22  1  0  0  0
  4  5  1  0  0  0
  5  6  2  0  0  0
  6 23  1  0  0  0
 23 24  1  0  0  0
 24 25  1  0  0  0
 24 26  1  0  0  0
  6  1  1  0  0  0
 18  7  1  0  0  0
 18 13  1  0  0  0
M  END
> <minimizedAffinity>
-7.71202

> <CNNscore>
0.2607542276

> <CNNaffinity>
5.7536735535

> <CNN_VS>
1.5002946854

> <CNNaffinity_variance>
0.1739812344

$$$$
[H]c1c(OC([H])([H])[H])c(C([H])([H])N(C([H])([H])[H])C([H])([H])[H])c([H])c(OC([H])([H])[H])c1-c1c([H])n(C([H])([H])[H])c(=O)c2c([H])c([H])c([H])c([H])c12


 26 28  0  0  0  0  0  0  0  0999 V2000
  -91.0082   29.3848   -1.6800 C   0  0  0  0  0  0  0  0  0  0  0  0
  -89.9892   29.9903   -0.9049 C   0  0  0  0  0  0  0  0  0  0  0  0
  -88.6164   29.4591   -0.8684 C   0  0  0  0  0  0  0  0  0  0  0  0
  -88.3564   28.3803   -1.5663 C   0  0  0  0  0  0  0  0  0  0  0  0
  -89.3529   27.7001   -2.3121 C   0  0  0  0  0  0  0  0  0  0  0  0
  -90.5553   28.2075   -2.3285 C   0  0  0  0  0  0  0  0  0  0  0  0
  -87.7169   30.4817   -0.3306 C   0  0  0  0  0  0  0  0  0  0  0  0
  -87.4538   31.6550   -1.1378 C   0  0  0  0  0  0  0  0  0  0  0  0
  -86.2949   32.3885   -1.0010 N   0  0  0  0  0  0  0  0  0  0  0  0
  -85.9297   33.5029   -1.7749 C   0  0  0  0  0  0  0  0  0  0  0  0
  -85.5573   31.8458   -0.0744 C   0  0  0  0  0  0  0  0  0  0  0  0
  -84.3856   32.6578    0.0077 O   0  0  0  0  0  0  0  0  0  0  0  0
  -85.4993   30.8955    0.7408 C   0  0  0  0  0  0  0  0  0  0  0  0
  -84.4736   30.5756    1.6516 C   0  0  0  0  0  0  0  0  0  0  0  0
  -84.9089   29.3524    2.4165 C   0  0  0  0  0  0  0  0  0  0  0  0
  -85.9003   28.7496    2.3002 C   0  0  0  0  0  0  0  0  0  0  0  0
  -86.9740   29.0352    1.3726 C   0  0  0  0  0  0  0  0  0  0  0  0
  -86.7467   30.0862    0.6250 C   0  0  0  0  0  0  0  0  0  0  0  0
  -93.4494   30.0585   -2.0393 C   0  0  0  0  0  0  0  0  0  0  0  0
  -92.2272   29.7454   -1.9066 O   0  0  0  0  0  0  0  0  0  0  0  0
  -87.0515   27.8261   -1.6558 O   0  0  0  0  0  0  0  0  0  0  0  0
  -87.0579   26.5185   -1.0747 C   0  0  0  0  0  0  0  0  0  0  0  0
  -91.6443   27.6302   -3.1785 C   0  0  0  0  0  0  0  0  0  0  0  0
  -92.3639   26.5092   -2.8882 N   0  0  0  0  0  0  0  0  0  0  0  0
  -93.0195   26.0100   -4.0781 C   0  0  0  0  0  0  0  0  0  0  0  0
  -92.7835   25.9296   -1.7385 C   0  0  0  0  0  0  0  0  0  0  0  0
 19 20  1  0  0  0
 20  1  1  0  0  0
  1  2  2  0  0  0
  2  3  1  0  0  0
  3  7  1  0  0  0
  7  8  2  0  0  0
  8  9  1  0  0  0
  9 10  1  0  0  0
  9 11  1  0  0  0
 11 12  2  0  0  0
 11 13  1  0  0  0
 13 14  2  0  0  0
 14 15  1  0  0  0
 15 16  2  0  0  0
 16 17  1  0  0  0
 17 18  2  0  0  0
  3  4  2  0  0  0
  4 21  1  0  0  0
 21 22  1  0  0  0
  4  5  1  0  0  0
  5  6  2  0  0  0
  6 23  1  0  0  0
 23 24  1  0  0  0
 24 25  1  0  0  0
 24 26  1  0  0  0
  6  1  1  0  0  0
 18  7  1  0  0  0
 18 13  1  0  0  0
M  END
> <minimizedAffinity>
-6.44330

> <CNNscore>
0.2489694804

> <CNNaffinity>
5.6362566948

> <CNN_VS>
1.4032559395

> <CNNaffinity_variance>
0.0883248299

$$$$
[H]c1c(OC([H])([H])[H])c(C([H])([H])N(C([H])([H])[H])C([H])([H])[H])c([H])c(OC([H])([H])[H])c1-c1c([H])n(C([H])([H])[H])c(=O)c2c([H])c([H])c([H])c([H])c12


 26 28  0  0  0  0  0  0  0  0999 V2000
  -88.4192   26.8235    1.7631 C   0  0  0  0  0  0  0  0  0  0  0  0
  -87.5707   27.9553    1.6936 C   0  0  0  0  0  0  0  0  0  0  0  0
  -87.0012   28.4271    0.4204 C   0  0  0  0  0  0  0  0  0  0  0  0
  -87.2849   27.7521   -0.6670 C   0  0  0  0  0  0  0  0  0  0  0  0
  -88.0803   26.5779   -0.6458 C   0  0  0  0  0  0  0  0  0  0  0  0
  -88.5759   26.1974    0.5000 C   0  0  0  0  0  0  0  0  0  0  0  0
  -86.5153   29.7983    0.5871 C   0  0  0  0  0  0  0  0  0  0  0  0
  -87.2209   30.8624   -0.0964 C   0  0  0  0  0  0  0  0  0  0  0  0
  -86.6013   32.0452   -0.4379 N   0  0  0  0  0  0  0  0  0  0  0  0
  -87.1873   33.1065   -1.1483 C   0  0  0  0  0  0  0  0  0  0  0  0
  -85.3589   32.0003   -0.0485 C   0  0  0  0  0  0  0  0  0  0  0  0
  -84.7905   33.2522   -0.4341 O   0  0  0  0  0  0  0  0  0  0  0  0
  -84.5047   31.2780    0.5168 C   0  0  0  0  0  0  0  0  0  0  0  0
  -83.1500   31.5571    0.7829 C   0  0  0  0  0  0  0  0  0  0  0  0
  -82.5732   30.3670    1.5053 C   0  0  0  0  0  0  0  0  0  0  0  0
  -83.1138   29.3771    1.8012 C   0  0  0  0  0  0  0  0  0  0  0  0
  -84.4978   29.0442    1.5391 C   0  0  0  0  0  0  0  0  0  0  0  0
  -85.1478   29.9908    0.9093 C   0  0  0  0  0  0  0  0  0  0  0  0
  -89.7118   25.9076    3.7712 C   0  0  0  0  0  0  0  0  0  0  0  0
  -89.0745   26.3157    2.7530 O   0  0  0  0  0  0  0  0  0  0  0  0
  -86.8450   28.1604   -1.9545 O   0  0  0  0  0  0  0  0  0  0  0  0
  -87.9803   28.5434   -2.7369 C   0  0  0  0  0  0  0  0  0  0  0  0
  -89.5210   25.0410    0.6066 C   0  0  0  0  0  0  0  0  0  0  0  0
  -90.5993   24.8242   -0.1989 N   0  0  0  0  0  0  0  0  0  0  0  0
  -91.7036   25.6707    0.1999 C   0  0  0  0  0  0  0  0  0  0  0  0
  -90.9325   23.8594   -1.0889 C   0  0  0  0  0  0  0  0  0  0  0  0
 19 20  1  0  0  0
 20  1  1  0  0  0
  1  2  2  0  0  0
  2  3  1  0  0  0
  3  7  1  0  0  0
  7  8  2  0  0  0
  8  9  1  0  0  0
  9 10  1  0  0  0
  9 11  1  0  0  0
 11 12  2  0  0  0
 11 13  1  0  0  0
 13 14  2  0  0  0
 14 15  1  0  0  0
 15 16  2  0  0  0
 16 17  1  0  0  0
 17 18  2  0  0  0
  3  4  2  0  0  0
  4 21  1  0  0  0
 21 22  1  0  0  0
  4  5  1  0  0  0
  5  6  2  0  0  0
  6 23  1  0  0  0
 23 24  1  0  0  0
 24 25  1  0  0  0
 24 26  1  0  0  0
  6  1  1  0  0  0
 18  7  1  0  0  0
 18 13  1  0  0  0
M  END
> <minimizedAffinity>
-8.65508

> <CNNscore>
0.2164929807

> <CNNaffinity>
5.7305803299

> <CNN_VS>
1.2406303883

> <CNNaffinity_variance>
0.3418277502

$$$$
[H]c1nc([H])c(N([H])C(=O)c2nn(-c3c([H])c([H])c([H])c([H])c3Cl)c(-c3c([H])c([H])c(Cl)c([H])c3[H])c2C([H])([H])C(=O)N([H])[H])c(C([H])([H])[H])c1[H]


 36 39  0  0  0  0  0  0  0  0999 V2000
  -87.8768   28.7960    0.0332 C   0  0  0  0  0  0  0  0  0  0  0  0
  -88.1212   28.3959    1.2905 N   0  0  0  0  0  0  0  0  0  0  0  0
  -88.9923   27.3795    1.3152 N   0  0  0  0  0  0  0  0  0  0  0  0
  -89.3613   27.0676    0.0337 C   0  0  0  0  0  0  0  0  0  0  0  0
  -88.6588   27.9532   -0.7563 C   0  0  0  0  0  0  0  0  0  0  0  0
  -89.4118   26.8305    2.5466 C   0  0  0  0  0  0  0  0  0  0  0  0
  -88.8045   25.7000    3.0411 C   0  0  0  0  0  0  0  0  0  0  0  0
  -89.2233   25.1241    4.2465 C   0  0  0  0  0  0  0  0  0  0  0  0
  -90.2630   25.6846    4.9687 C   0  0  0  0  0  0  0  0  0  0  0  0
  -90.8663   26.8133    4.4712 C   0  0  0  0  0  0  0  0  0  0  0  0
  -90.4550   27.3790    3.2868 C   0  0  0  0  0  0  0  0  0  0  0  0
  -91.2140   28.8166    2.6413 Cl  0  0  0  0  0  0  0  0  0  0  0  0
  -90.4016   26.1175   -0.3274 C   0  0  0  0  0  0  0  0  0  0  0  0
  -91.7498   26.3576   -0.2455 C   0  0  0  0  0  0  0  0  0  0  0  0
  -92.7366   25.4891   -0.6942 C   0  0  0  0  0  0  0  0  0  0  0  0
  -92.3677   24.2967   -1.2628 C   0  0  0  0  0  0  0  0  0  0  0  0
  -93.6282   23.2217   -1.8192 Cl  0  0  0  0  0  0  0  0  0  0  0  0
  -91.0446   24.0034   -1.3694 C   0  0  0  0  0  0  0  0  0  0  0  0
  -90.0646   24.8915   -0.9131 C   0  0  0  0  0  0  0  0  0  0  0  0
  -85.8654   30.1615    0.4372 N   0  0  0  0  0  0  0  0  0  0  0  0
  -86.9847   29.8845   -0.3749 C   0  0  0  0  0  0  0  0  0  0  0  0
  -87.2138   30.5298   -1.3958 O   0  0  0  0  0  0  0  0  0  0  0  0
  -85.7780   29.5239    1.3007 H   0  0  0  0  0  0  0  0  0  0  0  0
  -83.3754   29.6402    1.5526 C   0  0  0  0  0  0  0  0  0  0  0  0
  -83.6030   30.8945    0.8126 C   0  0  0  0  0  0  0  0  0  0  0  0
  -82.5733   31.8037    0.6762 C   0  0  0  0  0  0  0  0  0  0  0  0
  -82.7462   32.9847   -0.0016 C   0  0  0  0  0  0  0  0  0  0  0  0
  -83.9560   33.2087   -0.5204 N   0  0  0  0  0  0  0  0  0  0  0  0
  -84.9991   32.3267   -0.4029 C   0  0  0  0  0  0  0  0  0  0  0  0
  -84.8743   31.1369    0.2636 C   0  0  0  0  0  0  0  0  0  0  0  0
  -88.6031   28.0129   -2.2504 C   0  0  0  0  0  0  0  0  0  0  0  0
  -89.8961   28.6631   -2.6963 C   0  0  0  0  0  0  0  0  0  0  0  0
  -90.0600   30.0318   -2.4230 N   0  0  0  0  0  0  0  0  0  0  0  0
  -90.7753   28.0175   -3.2784 O   0  0  0  0  0  0  0  0  0  0  0  0
  -89.9697   30.4517   -1.4529 H   0  0  0  0  0  0  0  0  0  0  0  0
  -90.2879   30.7532   -3.1706 H   0  0  0  0  0  0  0  0  0  0  0  0
 24 25  1  0  0  0
 25 26  2  0  0  0
 26 27  1  0  0  0
 27 28  2  0  0  0
 28 29  1  0  0  0
 29 30  2  0  0  0
 30 20  1  0  0  0
 20 21  1  0  0  0
 21 22  2  0  0  0
 21  1  1  0  0  0
  1  2  2  0  0  0
  2  3  1  0  0  0
  3  6  1  0  0  0
  6  7  2  0  0  0
  7  8  1  0  0  0
  8  9  2  0  0  0
  9 10  1  0  0  0
 10 11  2  0  0  0
 11 12  1  0  0  0
  3  4  1  0  0  0
  4 13  1  0  0  0
 13 14  2  0  0  0
 14 15  1  0  0  0
 15 16  2  0  0  0
 16 17  1  0  0  0
 16 18  1  0  0  0
 18 19  2  0  0  0
  4  5  2  0  0  0
  5 31  1  0  0  0
 31 32  1  0  0  0
 32 33  1  0  0  0
 32 34  2  0  0  0
 30 25  1  0  0  0
  5  1  1  0  0  0
 11  6  1  0  0  0
 19 13  1  0  0  0
 20 23  1  0  0  0
 33 35  1  0  0  0
 33 36  1  0  0  0
M  END
> <minimizedAffinity>
-8.80418

> <CNNscore>
0.2539819181

> <CNNaffinity>
7.0274872780

> <CNN_VS>
1.7848546505

> <CNNaffinity_variance>
0.1187572628

$$$$
[H]c1nc([H])c(N([H])C(=O)c2nn(-c3c([H])c([H])c([H])c([H])c3Cl)c(-c3c([H])c([H])c(Cl)c([H])c3[H])c2C([H])([H])C(=O)N([H])[H])c(C([H])([H])[H])c1[H]


 36 39  0  0  0  0  0  0  0  0999 V2000
  -88.8587   32.0863   -2.5895 C   0  0  0  0  0  0  0  0  0  0  0  0
  -89.3774   30.8487   -2.5802 N   0  0  0  0  0  0  0  0  0  0  0  0
  -88.8063   30.0908   -1.6358 N   0  0  0  0  0  0  0  0  0  0  0  0
  -87.8630   30.8286   -0.9715 C   0  0  0  0  0  0  0  0  0  0  0  0
  -87.9060   32.0699   -1.5710 C   0  0  0  0  0  0  0  0  0  0  0  0
  -89.1861   28.7397   -1.4806 C   0  0  0  0  0  0  0  0  0  0  0  0
  -88.6120   27.7668   -2.2651 C   0  0  0  0  0  0  0  0  0  0  0  0
  -88.9939   26.4251   -2.1460 C   0  0  0  0  0  0  0  0  0  0  0  0
  -89.9625   26.0492   -1.2310 C   0  0  0  0  0  0  0  0  0  0  0  0
  -90.5328   27.0239   -0.4500 C   0  0  0  0  0  0  0  0  0  0  0  0
  -90.1578   28.3421   -0.5669 C   0  0  0  0  0  0  0  0  0  0  0  0
  -90.8755   29.5942    0.4213 Cl  0  0  0  0  0  0  0  0  0  0  0  0
  -86.9365   30.3020    0.0184 C   0  0  0  0  0  0  0  0  0  0  0  0
  -87.2644   29.4092    1.0069 C   0  0  0  0  0  0  0  0  0  0  0  0
  -86.3546   28.8259    1.8796 C   0  0  0  0  0  0  0  0  0  0  0  0
  -85.0258   29.1479    1.7712 C   0  0  0  0  0  0  0  0  0  0  0  0
  -83.9015   28.4006    2.8810 Cl  0  0  0  0  0  0  0  0  0  0  0  0
  -84.6415   30.0291    0.8102 C   0  0  0  0  0  0  0  0  0  0  0  0
  -85.5722   30.6054   -0.0610 C   0  0  0  0  0  0  0  0  0  0  0  0
  -89.7099   34.3761   -2.9151 N   0  0  0  0  0  0  0  0  0  0  0  0
  -89.2339   33.1795   -3.4902 C   0  0  0  0  0  0  0  0  0  0  0  0
  -89.1328   33.0473   -4.7082 O   0  0  0  0  0  0  0  0  0  0  0  0
  -89.7490   34.3634   -1.8389 H   0  0  0  0  0  0  0  0  0  0  0  0
  -87.8424   36.4218   -3.1245 C   0  0  0  0  0  0  0  0  0  0  0  0
  -89.1966   36.6011   -3.6782 C   0  0  0  0  0  0  0  0  0  0  0  0
  -89.5283   37.7874   -4.3013 C   0  0  0  0  0  0  0  0  0  0  0  0
  -90.7796   37.9951   -4.8259 C   0  0  0  0  0  0  0  0  0  0  0  0
  -91.6563   36.9953   -4.7036 N   0  0  0  0  0  0  0  0  0  0  0  0
  -91.3586   35.8054   -4.0909 C   0  0  0  0  0  0  0  0  0  0  0  0
  -90.1248   35.5527   -3.5531 C   0  0  0  0  0  0  0  0  0  0  0  0
  -87.1523   33.3051   -1.1901 C   0  0  0  0  0  0  0  0  0  0  0  0
  -85.9281   33.3451   -2.0805 C   0  0  0  0  0  0  0  0  0  0  0  0
  -86.1392   33.4155   -3.4682 N   0  0  0  0  0  0  0  0  0  0  0  0
  -84.7858   33.3172   -1.6082 O   0  0  0  0  0  0  0  0  0  0  0  0
  -86.7344   32.7222   -4.0073 H   0  0  0  0  0  0  0  0  0  0  0  0
  -85.7167   34.1717   -4.0853 H   0  0  0  0  0  0  0  0  0  0  0  0
 24 25  1  0  0  0
 25 26  2  0  0  0
 26 27  1  0  0  0
 27 28  2  0  0  0
 28 29  1  0  0  0
 29 30  2  0  0  0
 30 20  1  0  0  0
 20 21  1  0  0  0
 21 22  2  0  0  0
 21  1  1  0  0  0
  1  2  2  0  0  0
  2  3  1  0  0  0
  3  6  1  0  0  0
  6  7  2  0  0  0
  7  8  1  0  0  0
  8  9  2  0  0  0
  9 10  1  0  0  0
 10 11  2  0  0  0
 11 12  1  0  0  0
  3  4  1  0  0  0
  4 13  1  0  0  0
 13 14  2  0  0  0
 14 15  1  0  0  0
 15 16  2  0  0  0
 16 17  1  0  0  0
 16 18  1  0  0  0
 18 19  2  0  0  0
  4  5  2  0  0  0
  5 31  1  0  0  0
 31 32  1  0  0  0
 32 33  1  0  0  0
 32 34  2  0  0  0
 30 25  1  0  0  0
  5  1  1  0  0  0
 11  6  1  0  0  0
 19 13  1  0  0  0
 20 23  1  0  0  0
 33 35  1  0  0  0
 33 36  1  0  0  0
M  END
> <minimizedAffinity>
-7.87914

> <CNNscore>
0.1492405385

> <CNNaffinity>
6.7740364075

> <CNN_VS>
1.0109608173

> <CNNaffinity_variance>
0.2292641699

$$$$
[H]c1nc([H])c(N([H])C(=O)c2nn(-c3c([H])c([H])c([H])c([H])c3Cl)c(-c3c([H])c([H])c(Cl)c([H])c3[H])c2C([H])([H])C(=O)N([H])[H])c(C([H])([H])[H])c1[H]


 36 39  0  0  0  0  0  0  0  0999 V2000
  -89.6796   28.1342    0.1307 C   0  0  0  0  0  0  0  0  0  0  0  0
  -89.7254   28.8925   -0.9755 N   0  0  0  0  0  0  0  0  0  0  0  0
  -88.5904   29.5841   -1.1365 N   0  0  0  0  0  0  0  0  0  0  0  0
  -87.7332   29.2941   -0.1085 C   0  0  0  0  0  0  0  0  0  0  0  0
  -88.4199   28.3884    0.6726 C   0  0  0  0  0  0  0  0  0  0  0  0
  -88.4456   30.4720   -2.2248 C   0  0  0  0  0  0  0  0  0  0  0  0
  -87.8844   30.0354   -3.4020 C   0  0  0  0  0  0  0  0  0  0  0  0
  -87.7069   30.9064   -4.4837 C   0  0  0  0  0  0  0  0  0  0  0  0
  -88.0949   32.2320   -4.3889 C   0  0  0  0  0  0  0  0  0  0  0  0
  -88.6547   32.6634   -3.2117 C   0  0  0  0  0  0  0  0  0  0  0  0
  -88.8290   31.8078   -2.1489 C   0  0  0  0  0  0  0  0  0  0  0  0
  -89.5407   32.3434   -0.6435 Cl  0  0  0  0  0  0  0  0  0  0  0  0
  -86.4654   29.9640    0.1351 C   0  0  0  0  0  0  0  0  0  0  0  0
  -85.2347   29.3598    0.0912 C   0  0  0  0  0  0  0  0  0  0  0  0
  -84.0218   30.0254    0.2159 C   0  0  0  0  0  0  0  0  0  0  0  0
  -84.0226   31.3846    0.3992 C   0  0  0  0  0  0  0  0  0  0  0  0
  -82.4837   32.1984    0.5533 Cl  0  0  0  0  0  0  0  0  0  0  0  0
  -85.2136   32.0378    0.4525 C   0  0  0  0  0  0  0  0  0  0  0  0
  -86.4253   31.3506    0.3234 C   0  0  0  0  0  0  0  0  0  0  0  0
  -90.9767   26.0479   -0.0656 N   0  0  0  0  0  0  0  0  0  0  0  0
  -90.7414   27.2543    0.6261 C   0  0  0  0  0  0  0  0  0  0  0  0
  -91.4007   27.5673    1.6153 O   0  0  0  0  0  0  0  0  0  0  0  0
  -90.3308   25.8919   -0.9131 H   0  0  0  0  0  0  0  0  0  0  0  0
  -93.2491   25.9913   -1.6622 C   0  0  0  0  0  0  0  0  0  0  0  0
  -93.0768   24.9940   -0.5907 C   0  0  0  0  0  0  0  0  0  0  0  0
  -94.0477   24.0338   -0.3884 C   0  0  0  0  0  0  0  0  0  0  0  0
  -93.9266   23.0906    0.6014 C   0  0  0  0  0  0  0  0  0  0  0  0
  -92.8263   23.1484    1.3557 N   0  0  0  0  0  0  0  0  0  0  0  0
  -91.8438   24.0886    1.1808 C   0  0  0  0  0  0  0  0  0  0  0  0
  -91.9207   25.0488    0.2074 C   0  0  0  0  0  0  0  0  0  0  0  0
  -87.9318   27.6583    1.8840 C   0  0  0  0  0  0  0  0  0  0  0  0
  -86.9764   26.5963    1.3815 C   0  0  0  0  0  0  0  0  0  0  0  0
  -87.4727   25.6675    0.4508 N   0  0  0  0  0  0  0  0  0  0  0  0
  -85.8047   26.5456    1.7727 O   0  0  0  0  0  0  0  0  0  0  0  0
  -88.3352   25.0727    0.6177 H   0  0  0  0  0  0  0  0  0  0  0  0
  -87.0195   25.4897   -0.4949 H   0  0  0  0  0  0  0  0  0  0  0  0
 24 25  1  0  0  0
 25 26  2  0  0  0
 26 27  1  0  0  0
 27 28  2  0  0  0
 28 29  1  0  0  0
 29 30  2  0  0  0
 30 20  1  0  0  0
 20 21  1  0  0  0
 21 22  2  0  0  0
 21  1  1  0  0  0
  1  2  2  0  0  0
  2  3  1  0  0  0
  3  6  1  0  0  0
  6  7  2  0  0  0
  7  8  1  0  0  0
  8  9  2  0  0  0
  9 10  1  0  0  0
 10 11  2  0  0  0
 11 12  1  0  0  0
  3  4  1  0  0  0
  4 13  1  0  0  0
 13 14  2  0  0  0
 14 15  1  0  0  0
 15 16  2  0  0  0
 16 17  1  0  0  0
 16 18  1  0  0  0
 18 19  2  0  0  0
  4  5  2  0  0  0
  5 31  1  0  0  0
 31 32  1  0  0  0
 32 33  1  0  0  0
 32 34  2  0  0  0
 30 25  1  0  0  0
  5  1  1  0  0  0
 11  6  1  0  0  0
 19 13  1  0  0  0
 20 23  1  0  0  0
 33 35  1  0  0  0
 33 36  1  0  0  0
M  END
> <minimizedAffinity>
-9.47091

> <CNNscore>
0.1345760226

> <CNNaffinity>
6.5938577652

> <CNN_VS>
0.8873751760

> <CNNaffinity_variance>
0.3007490039

$$$$
[H]c1nc([H])c(N([H])C(=O)c2nn(-c3c([H])c([H])c([H])c([H])c3Cl)c(-c3c([H])c([H])c(Cl)c([H])c3[H])c2C([H])([H])C(=O)N([H])[H])c(C([H])([H])[H])c1[H]


 36 39  0  0  0  0  0  0  0  0999 V2000
  -88.9927   28.6998   -0.7620 C   0  0  0  0  0  0  0  0  0  0  0  0
  -88.9371   29.8087   -1.5156 N   0  0  0  0  0  0  0  0  0  0  0  0
  -89.9535   29.8552   -2.3858 N   0  0  0  0  0  0  0  0  0  0  0  0
  -90.7363   28.7426   -2.2281 C   0  0  0  0  0  0  0  0  0  0  0  0
  -90.1311   28.0318   -1.2129 C   0  0  0  0  0  0  0  0  0  0  0  0
  -90.0617   30.9273   -3.2982 C   0  0  0  0  0  0  0  0  0  0  0  0
  -91.2087   31.6851   -3.3401 C   0  0  0  0  0  0  0  0  0  0  0  0
  -91.3469   32.7352   -4.2557 C   0  0  0  0  0  0  0  0  0  0  0  0
  -90.3260   33.0332   -5.1420 C   0  0  0  0  0  0  0  0  0  0  0  0
  -89.1828   32.2739   -5.0965 C   0  0  0  0  0  0  0  0  0  0  0  0
  -89.0469   31.2422   -4.1971 C   0  0  0  0  0  0  0  0  0  0  0  0
  -87.5965   30.2669   -4.1278 Cl  0  0  0  0  0  0  0  0  0  0  0  0
  -91.8450   28.3726   -3.0938 C   0  0  0  0  0  0  0  0  0  0  0  0
  -93.1351   28.8173   -2.9541 C   0  0  0  0  0  0  0  0  0  0  0  0
  -94.1653   28.5491   -3.8465 C   0  0  0  0  0  0  0  0  0  0  0  0
  -93.9051   27.7854   -4.9557 C   0  0  0  0  0  0  0  0  0  0  0  0
  -95.2181   27.4623   -6.0628 Cl  0  0  0  0  0  0  0  0  0  0  0  0
  -92.6439   27.3152   -5.1462 C   0  0  0  0  0  0  0  0  0  0  0  0
  -91.6185   27.5972   -4.2371 C   0  0  0  0  0  0  0  0  0  0  0  0
  -86.7022   28.7215    0.1470 N   0  0  0  0  0  0  0  0  0  0  0  0
  -88.0447   28.3122    0.2858 C   0  0  0  0  0  0  0  0  0  0  0  0
  -88.4184   27.6507    1.2522 O   0  0  0  0  0  0  0  0  0  0  0  0
  -86.5057   29.2959   -0.7426 H   0  0  0  0  0  0  0  0  0  0  0  0
  -84.7434   30.6868    0.2766 C   0  0  0  0  0  0  0  0  0  0  0  0
  -84.6165   29.4655    1.0920 C   0  0  0  0  0  0  0  0  0  0  0  0
  -83.5228   29.3069    1.9192 C   0  0  0  0  0  0  0  0  0  0  0  0
  -83.3659   28.1827    2.6909 C   0  0  0  0  0  0  0  0  0  0  0  0
  -84.3211   27.2538    2.6014 N   0  0  0  0  0  0  0  0  0  0  0  0
  -85.4191   27.3808    1.7902 C   0  0  0  0  0  0  0  0  0  0  0  0
  -85.6185   28.4834    1.0029 C   0  0  0  0  0  0  0  0  0  0  0  0
  -90.6052   26.7726   -0.5584 C   0  0  0  0  0  0  0  0  0  0  0  0
  -89.9685   25.6320   -1.3244 C   0  0  0  0  0  0  0  0  0  0  0  0
  -88.7052   25.1901   -0.8956 N   0  0  0  0  0  0  0  0  0  0  0  0
  -90.5354   25.1076   -2.2900 O   0  0  0  0  0  0  0  0  0  0  0  0
  -87.8651   25.8291   -0.7880 H   0  0  0  0  0  0  0  0  0  0  0  0
  -88.4946   24.1780   -0.6456 H   0  0  0  0  0  0  0  0  0  0  0  0
 24 25  1  0  0  0
 25 26  2  0  0  0
 26 27  1  0  0  0
 27 28  2  0  0  0
 28 29  1  0  0  0
 29 30  2  0  0  0
 30 20  1  0  0  0
 20 21  1  0  0  0
 21 22  2  0  0  0
 21  1  1  0  0  0
  1  2  2  0  0  0
  2  3  1  0  0  0
  3  6  1  0  0  0
  6  7  2  0  0  0
  7  8  1  0  0  0
  8  9  2  0  0  0
  9 10  1  0  0  0
 10 11  2  0  0  0
 11 12  1  0  0  0
  3  4  1  0  0  0
  4 13  1  0  0  0
 13 14  2  0  0  0
 14 15  1  0  0  0
 15 16  2  0  0  0
 16 17  1  0  0  0
 16 18  1  0  0  0
 18 19  2  0  0  0
  4  5  2  0  0  0
  5 31  1  0  0  0
 31 32  1  0  0  0
 32 33  1  0  0  0
 32 34  2  0  0  0
 30 25  1  0  0  0
  5  1  1  0  0  0
 11  6  1  0  0  0
 19 13  1  0  0  0
 20 23  1  0  0  0
 33 35  1  0  0  0
 33 36  1  0  0  0
M  END
> <minimizedAffinity>
-7.64415

> <CNNscore>
0.0796139240

> <CNNaffinity>
6.4451050758

> <CNN_VS>
0.5131201148

> <CNNaffinity_variance>
0.2903380692

$$$$
[H]c1nc([H])c(N([H])C(=O)c2nn(-c3c([H])c([H])c([H])c([H])c3Cl)c(-c3c([H])c([H])c(Cl)c([H])c3[H])c2C([H])([H])C(=O)N([H])[H])c(C([H])([H])[H])c1[H]


 36 39  0  0  0  0  0  0  0  0999 V2000
  -87.9483   29.5877   -1.2357 C   0  0  0  0  0  0  0  0  0  0  0  0
  -87.6977   30.8018   -1.7492 N   0  0  0  0  0  0  0  0  0  0  0  0
  -88.7771   31.3000   -2.3651 N   0  0  0  0  0  0  0  0  0  0  0  0
  -89.8063   30.4010   -2.2738 C   0  0  0  0  0  0  0  0  0  0  0  0
  -89.2805   29.3403   -1.5664 C   0  0  0  0  0  0  0  0  0  0  0  0
  -88.7156   32.5574   -3.0046 C   0  0  0  0  0  0  0  0  0  0  0  0
  -89.1589   33.6851   -2.3540 C   0  0  0  0  0  0  0  0  0  0  0  0
  -89.1319   34.9371   -2.9801 C   0  0  0  0  0  0  0  0  0  0  0  0
  -88.6557   35.0653   -4.2738 C   0  0  0  0  0  0  0  0  0  0  0  0
  -88.2143   33.9366   -4.9193 C   0  0  0  0  0  0  0  0  0  0  0  0
  -88.2409   32.7065   -4.3043 C   0  0  0  0  0  0  0  0  0  0  0  0
  -87.6817   31.2606   -5.1142 Cl  0  0  0  0  0  0  0  0  0  0  0  0
  -91.0881   30.5285   -2.9491 C   0  0  0  0  0  0  0  0  0  0  0  0
  -92.2774   30.8217   -2.3315 C   0  0  0  0  0  0  0  0  0  0  0  0
  -93.4771   31.0505   -2.9933 C   0  0  0  0  0  0  0  0  0  0  0  0
  -93.5068   30.9833   -4.3629 C   0  0  0  0  0  0  0  0  0  0  0  0
  -95.0283   31.2750   -5.1716 Cl  0  0  0  0  0  0  0  0  0  0  0  0
  -92.3578   30.6947   -5.0296 C   0  0  0  0  0  0  0  0  0  0  0  0
  -91.1584   30.4687   -4.3460 C   0  0  0  0  0  0  0  0  0  0  0  0
  -86.1172   29.3671    0.3989 N   0  0  0  0  0  0  0  0  0  0  0  0
  -87.0025   28.7415   -0.5032 C   0  0  0  0  0  0  0  0  0  0  0  0
  -86.9897   27.5246   -0.6769 O   0  0  0  0  0  0  0  0  0  0  0  0
  -86.2314   30.4363    0.4594 H   0  0  0  0  0  0  0  0  0  0  0  0
  -83.7272   30.7560    0.6733 C   0  0  0  0  0  0  0  0  0  0  0  0
  -83.9169   29.4714    1.3708 C   0  0  0  0  0  0  0  0  0  0  0  0
  -82.9033   28.9665    2.1602 C   0  0  0  0  0  0  0  0  0  0  0  0
  -83.0392   27.7720    2.8225 C   0  0  0  0  0  0  0  0  0  0  0  0
  -84.1970   27.1255    2.6653 N   0  0  0  0  0  0  0  0  0  0  0  0
  -85.2229   27.5996    1.8889 C   0  0  0  0  0  0  0  0  0  0  0  0
  -85.1334   28.7854    1.2099 C   0  0  0  0  0  0  0  0  0  0  0  0
  -89.9846   28.1084   -1.0915 C   0  0  0  0  0  0  0  0  0  0  0  0
  -89.8577   27.0921   -2.2070 C   0  0  0  0  0  0  0  0  0  0  0  0
  -89.0003   25.9995   -1.9926 N   0  0  0  0  0  0  0  0  0  0  0  0
  -90.4830   27.2158   -3.2664 O   0  0  0  0  0  0  0  0  0  0  0  0
  -87.9799   26.0987   -1.7193 H   0  0  0  0  0  0  0  0  0  0  0  0
  -89.3102   24.9865   -2.0884 H   0  0  0  0  0  0  0  0  0  0  0  0
 24 25  1  0  0  0
 25 26  2  0  0  0
 26 27  1  0  0  0
 27 28  2  0  0  0
 28 29  1  0  0  0
 29 30  2  0  0  0
 30 20  1  0  0  0
 20 21  1  0  0  0
 21 22  2  0  0  0
 21  1  1  0  0  0
  1  2  2  0  0  0
  2  3  1  0  0  0
  3  6  1  0  0  0
  6  7  2  0  0  0
  7  8  1  0  0  0
  8  9  2  0  0  0
  9 10  1  0  0  0
 10 11  2  0  0  0
 11 12  1  0  0  0
  3  4  1  0  0  0
  4 13  1  0  0  0
 13 14  2  0  0  0
 14 15  1  0  0  0
 15 16  2  0  0  0
 16 17  1  0  0  0
 16 18  1  0  0  0
 18 19  2  0  0  0
  4  5  2  0  0  0
  5 31  1  0  0  0
 31 32  1  0  0  0
 32 33  1  0  0  0
 32 34  2  0  0  0
 30 25  1  0  0  0
  5  1  1  0  0  0
 11  6  1  0  0  0
 19 13  1  0  0  0
 20 23  1  0  0  0
 33 35  1  0  0  0
 33 36  1  0  0  0
M  END
> <minimizedAffinity>
-8.55388

> <CNNscore>
0.0747366995

> <CNNaffinity>
6.5888109207

> <CNN_VS>
0.4924259782

> <CNNaffinity_variance>
0.2099514455

$$$$
[H]c1nc([H])c(N([H])C(=O)c2nn(-c3c([H])c([H])c([H])c([H])c3Cl)c(-c3c([H])c([H])c(Cl)c([H])c3[H])c2C([H])([H])C(=O)N([H])[H])c(C([H])([H])[H])c1[H]


 36 39  0  0  0  0  0  0  0  0999 V2000
  -87.4845   28.0900    0.5756 C   0  0  0  0  0  0  0  0  0  0  0  0
  -86.3159   28.6726    0.8849 N   0  0  0  0  0  0  0  0  0  0  0  0
  -86.2089   29.8784    0.3130 N   0  0  0  0  0  0  0  0  0  0  0  0
  -87.3400   30.1369   -0.4147 C   0  0  0  0  0  0  0  0  0  0  0  0
  -88.1285   29.0186   -0.2419 C   0  0  0  0  0  0  0  0  0  0  0  0
  -85.0369   30.6469    0.4849 C   0  0  0  0  0  0  0  0  0  0  0  0
  -84.3124   31.0553   -0.6105 C   0  0  0  0  0  0  0  0  0  0  0  0
  -83.1330   31.7948   -0.4609 C   0  0  0  0  0  0  0  0  0  0  0  0
  -82.6702   32.1313    0.7997 C   0  0  0  0  0  0  0  0  0  0  0  0
  -83.3969   31.7215    1.8903 C   0  0  0  0  0  0  0  0  0  0  0  0
  -84.5555   30.9949    1.7435 C   0  0  0  0  0  0  0  0  0  0  0  0
  -85.4913   30.4663    3.1235 Cl  0  0  0  0  0  0  0  0  0  0  0  0
  -87.5242   31.2820   -1.2923 C   0  0  0  0  0  0  0  0  0  0  0  0
  -87.6807   32.5785   -0.8721 C   0  0  0  0  0  0  0  0  0  0  0  0
  -87.7460   33.6807   -1.7150 C   0  0  0  0  0  0  0  0  0  0  0  0
  -87.6524   33.4907   -3.0701 C   0  0  0  0  0  0  0  0  0  0  0  0
  -87.7374   34.8935   -4.1089 Cl  0  0  0  0  0  0  0  0  0  0  0  0
  -87.4978   32.2265   -3.5452 C   0  0  0  0  0  0  0  0  0  0  0  0
  -87.4325   31.1285   -2.6807 C   0  0  0  0  0  0  0  0  0  0  0  0
  -88.9368   26.7104    2.0111 N   0  0  0  0  0  0  0  0  0  0  0  0
  -87.9403   26.7685    1.0149 C   0  0  0  0  0  0  0  0  0  0  0  0
  -87.4623   25.7481    0.5233 O   0  0  0  0  0  0  0  0  0  0  0  0
  -89.2718   27.6737    2.3570 H   0  0  0  0  0  0  0  0  0  0  0  0
  -91.1079   25.6073    0.6749 C   0  0  0  0  0  0  0  0  0  0  0  0
  -90.6309   25.0014    1.9310 C   0  0  0  0  0  0  0  0  0  0  0  0
  -91.2666   23.8849    2.4356 C   0  0  0  0  0  0  0  0  0  0  0  0
  -90.8557   23.2939    3.6043 C   0  0  0  0  0  0  0  0  0  0  0  0
  -89.8137   23.8515    4.2260 N   0  0  0  0  0  0  0  0  0  0  0  0
  -89.1606   24.9597    3.7516 C   0  0  0  0  0  0  0  0  0  0  0  0
  -89.5343   25.5831    2.5910 C   0  0  0  0  0  0  0  0  0  0  0  0
  -89.5214   28.7865   -0.7364 C   0  0  0  0  0  0  0  0  0  0  0  0
  -89.3844   28.1513   -2.1043 C   0  0  0  0  0  0  0  0  0  0  0  0
  -88.9163   26.8273   -2.1590 N   0  0  0  0  0  0  0  0  0  0  0  0
  -89.6724   28.7708   -3.1349 O   0  0  0  0  0  0  0  0  0  0  0  0
  -88.0061   26.5077   -1.7174 H   0  0  0  0  0  0  0  0  0  0  0  0
  -89.4408   26.0425   -2.6491 H   0  0  0  0  0  0  0  0  0  0  0  0
 24 25  1  0  0  0
 25 26  2  0  0  0
 26 27  1  0  0  0
 27 28  2  0  0  0
 28 29  1  0  0  0
 29 30  2  0  0  0
 30 20  1  0  0  0
 20 21  1  0  0  0
 21 22  2  0  0  0
 21  1  1  0  0  0
  1  2  2  0  0  0
  2  3  1  0  0  0
  3  6  1  0  0  0
  6  7  2  0  0  0
  7  8  1  0  0  0
  8  9  2  0  0  0
  9 10  1  0  0  0
 10 11  2  0  0  0
 11 12  1  0  0  0
  3  4  1  0  0  0
  4 13  1  0  0  0
 13 14  2  0  0  0
 14 15  1  0  0  0
 15 16  2  0  0  0
 16 17  1  0  0  0
 16 18  1  0  0  0
 18 19  2  0  0  0
  4  5  2  0  0  0
  5 31  1  0  0  0
 31 32  1  0  0  0
 32 33  1  0  0  0
 32 34  2  0  0  0
 30 25  1  0  0  0
  5  1  1  0  0  0
 11  6  1  0  0  0
 19 13  1  0  0  0
 20 23  1  0  0  0
 33 35  1  0  0  0
 33 36  1  0  0  0
M  END
> <minimizedAffinity>
-8.74160

> <CNNscore>
0.0710217953

> <CNNaffinity>
6.3900570869

> <CNN_VS>
0.4538333118

> <CNNaffinity_variance>
0.5803821087

$$$$
[H]c1nc([H])c(N([H])C(=O)c2nn(-c3c([H])c([H])c([H])c([H])c3Cl)c(-c3c([H])c([H])c(Cl)c([H])c3[H])c2C([H])([H])C(=O)N([H])[H])c(C([H])([H])[H])c1[H]


 36 39  0  0  0  0  0  0  0  0999 V2000
  -89.1988   29.1695    0.1410 C   0  0  0  0  0  0  0  0  0  0  0  0
  -87.9417   29.4842    0.4891 N   0  0  0  0  0  0  0  0  0  0  0  0
  -87.4871   30.5231   -0.2227 N   0  0  0  0  0  0  0  0  0  0  0  0
  -88.4617   30.9392   -1.0903 C   0  0  0  0  0  0  0  0  0  0  0  0
  -89.5237   30.0918   -0.8535 C   0  0  0  0  0  0  0  0  0  0  0  0
  -86.1693   30.9937   -0.0342 C   0  0  0  0  0  0  0  0  0  0  0  0
  -85.8639   32.3108   -0.2862 C   0  0  0  0  0  0  0  0  0  0  0  0
  -84.5580   32.7913   -0.1318 C   0  0  0  0  0  0  0  0  0  0  0  0
  -83.5425   31.9452    0.2800 C   0  0  0  0  0  0  0  0  0  0  0  0
  -83.8520   30.6311    0.5304 C   0  0  0  0  0  0  0  0  0  0  0  0
  -85.1350   30.1589    0.3786 C   0  0  0  0  0  0  0  0  0  0  0  0
  -85.5438   28.4877    0.6941 Cl  0  0  0  0  0  0  0  0  0  0  0  0
  -88.2834   31.9454   -2.1253 C   0  0  0  0  0  0  0  0  0  0  0  0
  -87.7552   31.7100   -3.3693 C   0  0  0  0  0  0  0  0  0  0  0  0
  -87.6887   32.6488   -4.3910 C   0  0  0  0  0  0  0  0  0  0  0  0
  -88.1763   33.9115   -4.1694 C   0  0  0  0  0  0  0  0  0  0  0  0
  -88.0807   35.0741   -5.4707 Cl  0  0  0  0  0  0  0  0  0  0  0  0
  -88.7106   34.2035   -2.9541 C   0  0  0  0  0  0  0  0  0  0  0  0
  -88.7705   33.2443   -1.9374 C   0  0  0  0  0  0  0  0  0  0  0  0
  -89.3406   27.0028    1.3066 N   0  0  0  0  0  0  0  0  0  0  0  0
  -90.0108   28.0861    0.7014 C   0  0  0  0  0  0  0  0  0  0  0  0
  -91.2378   28.1302    0.6410 O   0  0  0  0  0  0  0  0  0  0  0  0
  -88.2669   27.0860    1.2951 H   0  0  0  0  0  0  0  0  0  0  0  0
  -89.8000   27.1209    4.0435 C   0  0  0  0  0  0  0  0  0  0  0  0
  -90.1322   25.8966    3.2931 C   0  0  0  0  0  0  0  0  0  0  0  0
  -90.6734   24.8141    3.9570 C   0  0  0  0  0  0  0  0  0  0  0  0
  -90.9925   23.6547    3.2951 C   0  0  0  0  0  0  0  0  0  0  0  0
  -90.7538   23.6271    1.9815 N   0  0  0  0  0  0  0  0  0  0  0  0
  -90.2176   24.6844    1.2928 C   0  0  0  0  0  0  0  0  0  0  0  0
  -89.8837   25.8605    1.9099 C   0  0  0  0  0  0  0  0  0  0  0  0
  -90.8936   30.1395   -1.4535 C   0  0  0  0  0  0  0  0  0  0  0  0
  -90.8345   29.2971   -2.7105 C   0  0  0  0  0  0  0  0  0  0  0  0
  -91.0996   27.9230   -2.5816 N   0  0  0  0  0  0  0  0  0  0  0  0
  -90.5639   29.7958   -3.8090 O   0  0  0  0  0  0  0  0  0  0  0  0
  -90.5814   27.2856   -1.9102 H   0  0  0  0  0  0  0  0  0  0  0  0
  -91.8423   27.4160   -3.1495 H   0  0  0  0  0  0  0  0  0  0  0  0
 24 25  1  0  0  0
 25 26  2  0  0  0
 26 27  1  0  0  0
 27 28  2  0  0  0
 28 29  1  0  0  0
 29 30  2  0  0  0
 30 20  1  0  0  0
 20 21  1  0  0  0
 21 22  2  0  0  0
 21  1  1  0  0  0
  1  2  2  0  0  0
  2  3  1  0  0  0
  3  6  1  0  0  0
  6  7  2  0  0  0
  7  8  1  0  0  0
  8  9  2  0  0  0
  9 10  1  0  0  0
 10 11  2  0  0  0
 11 12  1  0  0  0
  3  4  1  0  0  0
  4 13  1  0  0  0
 13 14  2  0  0  0
 14 15  1  0  0  0
 15 16  2  0  0  0
 16 17  1  0  0  0
 16 18  1  0  0  0
 18 19  2  0  0  0
  4  5  2  0  0  0
  5 31  1  0  0  0
 31 32  1  0  0  0
 32 33  1  0  0  0
 32 34  2  0  0  0
 30 25  1  0  0  0
  5  1  1  0  0  0
 11  6  1  0  0  0
 19 13  1  0  0  0
 20 23  1  0  0  0
 33 35  1  0  0  0
 33 36  1  0  0  0
M  END
> <minimizedAffinity>
-9.07913

> <CNNscore>
0.0691307113

> <CNNaffinity>
6.4672060013

> <CNN_VS>
0.4470825493

> <CNNaffinity_variance>
0.3877494037

$$$$
[H]c1nc([H])c(N([H])C(=O)c2nn(-c3c([H])c([H])c([H])c([H])c3Cl)c(-c3c([H])c([H])c(Cl)c([H])c3[H])c2C([H])([H])C(=O)N([H])[H])c(C([H])([H])[H])c1[H]


 36 39  0  0  0  0  0  0  0  0999 V2000
  -89.5266   27.6381   -1.2214 C   0  0  0  0  0  0  0  0  0  0  0  0
  -89.5995   28.6759   -2.0691 N   0  0  0  0  0  0  0  0  0  0  0  0
  -88.5664   29.5111   -1.9030 N   0  0  0  0  0  0  0  0  0  0  0  0
  -87.7539   29.0348   -0.9086 C   0  0  0  0  0  0  0  0  0  0  0  0
  -88.3592   27.8672   -0.4935 C   0  0  0  0  0  0  0  0  0  0  0  0
  -88.4709   30.6887   -2.6760 C   0  0  0  0  0  0  0  0  0  0  0  0
  -87.8085   30.6716   -3.8812 C   0  0  0  0  0  0  0  0  0  0  0  0
  -87.6790   31.8344   -4.6502 C   0  0  0  0  0  0  0  0  0  0  0  0
  -88.2183   33.0311   -4.2102 C   0  0  0  0  0  0  0  0  0  0  0  0
  -88.8787   33.0434   -3.0064 C   0  0  0  0  0  0  0  0  0  0  0  0
  -89.0059   31.9011   -2.2508 C   0  0  0  0  0  0  0  0  0  0  0  0
  -89.8446   31.9020   -0.7158 Cl  0  0  0  0  0  0  0  0  0  0  0  0
  -86.6162   29.7465   -0.3479 C   0  0  0  0  0  0  0  0  0  0  0  0
  -85.3732   29.2045   -0.1402 C   0  0  0  0  0  0  0  0  0  0  0  0
  -84.2618   29.9169    0.2921 C   0  0  0  0  0  0  0  0  0  0  0  0
  -84.3854   31.2604    0.5395 C   0  0  0  0  0  0  0  0  0  0  0  0
  -82.9724   32.1338    1.0824 Cl  0  0  0  0  0  0  0  0  0  0  0  0
  -85.5947   31.8524    0.3525 C   0  0  0  0  0  0  0  0  0  0  0  0
  -86.7027   31.1188   -0.0850 C   0  0  0  0  0  0  0  0  0  0  0  0
  -90.5837   25.6365   -2.1959 N   0  0  0  0  0  0  0  0  0  0  0  0
  -90.4850   26.5350   -1.1133 C   0  0  0  0  0  0  0  0  0  0  0  0
  -91.1766   26.4055   -0.1053 O   0  0  0  0  0  0  0  0  0  0  0  0
  -89.9230   25.8600   -3.0166 H   0  0  0  0  0  0  0  0  0  0  0  0
  -92.7190   25.8531   -3.9593 C   0  0  0  0  0  0  0  0  0  0  0  0
  -92.4954   24.5952   -3.2244 C   0  0  0  0  0  0  0  0  0  0  0  0
  -93.3499   23.5288   -3.4195 C   0  0  0  0  0  0  0  0  0  0  0  0
  -93.1783   22.3422   -2.7513 C   0  0  0  0  0  0  0  0  0  0  0  0
  -92.1468   22.2719   -1.9061 N   0  0  0  0  0  0  0  0  0  0  0  0
  -91.2802   23.3121   -1.6898 C   0  0  0  0  0  0  0  0  0  0  0  0
  -91.4114   24.5140   -2.3330 C   0  0  0  0  0  0  0  0  0  0  0  0
  -87.8615   26.8767    0.5115 C   0  0  0  0  0  0  0  0  0  0  0  0
  -88.2230   27.4359    1.8716 C   0  0  0  0  0  0  0  0  0  0  0  0
  -89.5389   27.2385    2.3235 N   0  0  0  0  0  0  0  0  0  0  0  0
  -87.3948   28.0431    2.5601 O   0  0  0  0  0  0  0  0  0  0  0  0
  -90.3984   27.5279    1.7729 H   0  0  0  0  0  0  0  0  0  0  0  0
  -89.7739   26.7825    3.2552 H   0  0  0  0  0  0  0  0  0  0  0  0
 24 25  1  0  0  0
 25 26  2  0  0  0
 26 27  1  0  0  0
 27 28  2  0  0  0
 28 29  1  0  0  0
 29 30  2  0  0  0
 30 20  1  0  0  0
 20 21  1  0  0  0
 21 22  2  0  0  0
 21  1  1  0  0  0
  1  2  2  0  0  0
  2  3  1  0  0  0
  3  6  1  0  0  0
  6  7  2  0  0  0
  7  8  1  0  0  0
  8  9  2  0  0  0
  9 10  1  0  0  0
 10 11  2  0  0  0
 11 12  1  0  0  0
  3  4  1  0  0  0
  4 13  1  0  0  0
 13 14  2  0  0  0
 14 15  1  0  0  0
 15 16  2  0  0  0
 16 17  1  0  0  0
 16 18  1  0  0  0
 18 19  2  0  0  0
  4  5  2  0  0  0
  5 31  1  0  0  0
 31 32  1  0  0  0
 32 33  1  0  0  0
 32 34  2  0  0  0
 30 25  1  0  0  0
  5  1  1  0  0  0
 11  6  1  0  0  0
 19 13  1  0  0  0
 20 23  1  0  0  0
 33 35  1  0  0  0
 33 36  1  0  0  0
M  END
> <minimizedAffinity>
-8.72250

> <CNNscore>
0.0673282295

> <CNNaffinity>
6.1845774651

> <CNN_VS>
0.4163966477

> <CNNaffinity_variance>
0.4600266814

$$$$
[H]c1nc([H])c(N([H])C(=O)c2nn(-c3c([H])c([H])c([H])c([H])c3Cl)c(-c3c([H])c([H])c(Cl)c([H])c3[H])c2C([H])([H])C(=O)N([H])[H])c(C([H])([H])[H])c1[H]


 36 39  0  0  0  0  0  0  0  0999 V2000
  -90.9485   28.6664   -0.7487 C   0  0  0  0  0  0  0  0  0  0  0  0
  -91.0370   27.8933    0.3445 N   0  0  0  0  0  0  0  0  0  0  0  0
  -89.8990   27.9182    1.0494 N   0  0  0  0  0  0  0  0  0  0  0  0
  -88.9956   28.7348    0.4228 C   0  0  0  0  0  0  0  0  0  0  0  0
  -89.6601   29.1976   -0.6936 C   0  0  0  0  0  0  0  0  0  0  0  0
  -89.7705   27.1428    2.2224 C   0  0  0  0  0  0  0  0  0  0  0  0
  -89.0435   25.9755    2.2021 C   0  0  0  0  0  0  0  0  0  0  0  0
  -88.9262   25.1782    3.3470 C   0  0  0  0  0  0  0  0  0  0  0  0
  -89.5433   25.5513    4.5288 C   0  0  0  0  0  0  0  0  0  0  0  0
  -90.2681   26.7174    4.5443 C   0  0  0  0  0  0  0  0  0  0  0  0
  -90.3834   27.5007    3.4195 C   0  0  0  0  0  0  0  0  0  0  0  0
  -91.3031   28.9886    3.4248 Cl  0  0  0  0  0  0  0  0  0  0  0  0
  -87.6032   28.8928    0.8123 C   0  0  0  0  0  0  0  0  0  0  0  0
  -87.1087   28.6735    2.0729 C   0  0  0  0  0  0  0  0  0  0  0  0
  -85.7628   28.7190    2.4137 C   0  0  0  0  0  0  0  0  0  0  0  0
  -84.8379   29.0034    1.4417 C   0  0  0  0  0  0  0  0  0  0  0  0
  -83.1511   29.0547    1.8962 Cl  0  0  0  0  0  0  0  0  0  0  0  0
  -85.2697   29.2314    0.1731 C   0  0  0  0  0  0  0  0  0  0  0  0
  -86.6294   29.1797   -0.1517 C   0  0  0  0  0  0  0  0  0  0  0  0
  -91.8151   28.2878   -3.0245 N   0  0  0  0  0  0  0  0  0  0  0  0
  -91.9942   28.8734   -1.7541 C   0  0  0  0  0  0  0  0  0  0  0  0
  -92.9932   29.5386   -1.4879 O   0  0  0  0  0  0  0  0  0  0  0  0
  -90.8996   27.7301   -3.1283 H   0  0  0  0  0  0  0  0  0  0  0  0
  -91.5578   30.4842   -4.7054 C   0  0  0  0  0  0  0  0  0  0  0  0
  -92.5458   29.4342   -5.0115 C   0  0  0  0  0  0  0  0  0  0  0  0
  -93.3378   29.5483   -6.1364 C   0  0  0  0  0  0  0  0  0  0  0  0
  -94.2723   28.5944   -6.4539 C   0  0  0  0  0  0  0  0  0  0  0  0
  -94.3761   27.5543   -5.6228 N   0  0  0  0  0  0  0  0  0  0  0  0
  -93.6050   27.4112   -4.4982 C   0  0  0  0  0  0  0  0  0  0  0  0
  -92.6606   28.3363   -4.1410 C   0  0  0  0  0  0  0  0  0  0  0  0
  -89.1872   30.1991   -1.6997 C   0  0  0  0  0  0  0  0  0  0  0  0
  -89.6679   31.5493   -1.2107 C   0  0  0  0  0  0  0  0  0  0  0  0
  -89.8914   32.5453   -2.1766 N   0  0  0  0  0  0  0  0  0  0  0  0
  -89.8575   31.7700   -0.0090 O   0  0  0  0  0  0  0  0  0  0  0  0
  -89.1602   32.8557   -2.8799 H   0  0  0  0  0  0  0  0  0  0  0  0
  -90.8138   33.0655   -2.2761 H   0  0  0  0  0  0  0  0  0  0  0  0
 24 25  1  0  0  0
 25 26  2  0  0  0
 26 27  1  0  0  0
 27 28  2  0  0  0
 28 29  1  0  0  0
 29 30  2  0  0  0
 30 20  1  0  0  0
 20 21  1  0  0  0
 21 22  2  0  0  0
 21  1  1  0  0  0
  1  2  2  0  0  0
  2  3  1  0  0  0
  3  6  1  0  0  0
  6  7  2  0  0  0
  7  8  1  0  0  0
  8  9  2  0  0  0
  9 10  1  0  0  0
 10 11  2  0  0  0
 11 12  1  0  0  0
  3  4  1  0  0  0
  4 13  1  0  0  0
 13 14  2  0  0  0
 14 15  1  0  0  0
 15 16  2  0  0  0
 16 17  1  0  0  0
 16 18  1  0  0  0
 18 19  2  0  0  0
  4  5  2  0  0  0
  5 31  1  0  0  0
 31 32  1  0  0  0
 32 33  1  0  0  0
 32 34  2  0  0  0
 30 25  1  0  0  0
  5  1  1  0  0  0
 11  6  1  0  0  0
 19 13  1  0  0  0
 20 23  1  0  0  0
 33 35  1  0  0  0
 33 36  1  0  0  0
M  END
> <minimizedAffinity>
-7.86152

> <CNNscore>
0.0665066987

> <CNNaffinity>
6.1370453835

> <CNN_VS>
0.4081546366

> <CNNaffinity_variance>
0.3443171382

$$$$
[H]OC([H])([H])C([H])([H])n1c(C2([H])C([H])([H])C([H])([H])N(c3nc([H])nc(N([H])[H])c3C#N)C([H])([H])C2([H])[H])nc(-c2c([H])c([H])c(F)c(C([H])([H])[H])c2[H])c1[H]


 34 37  0  0  0  0  0  0  0  0999 V2000
  -91.7590   27.1308   -3.3922 C   0  0  0  0  0  0  0  0  0  0  0  0
  -91.7856   26.1884   -2.3913 C   0  0  0  0  0  0  0  0  0  0  0  0
  -90.8067   26.5319   -1.4954 N   0  0  0  0  0  0  0  0  0  0  0  0
  -90.1969   27.6409   -1.9211 C   0  0  0  0  0  0  0  0  0  0  0  0
  -90.7918   27.9863   -3.0743 N   0  0  0  0  0  0  0  0  0  0  0  0
  -94.5919   24.8384   -6.8170 C   0  0  0  0  0  0  0  0  0  0  0  0
  -94.0098   26.0637   -6.2164 C   0  0  0  0  0  0  0  0  0  0  0  0
  -93.1709   26.0130   -5.1026 C   0  0  0  0  0  0  0  0  0  0  0  0
  -92.6380   27.1481   -4.5543 C   0  0  0  0  0  0  0  0  0  0  0  0
  -92.9386   28.3686   -5.1175 C   0  0  0  0  0  0  0  0  0  0  0  0
  -93.7657   28.4500   -6.2200 C   0  0  0  0  0  0  0  0  0  0  0  0
  -94.3015   27.2930   -6.7690 C   0  0  0  0  0  0  0  0  0  0  0  0
  -95.1157   27.4215   -7.8609 F   0  0  0  0  0  0  0  0  0  0  0  0
  -89.0947   28.3566   -1.2829 C   0  0  0  0  0  0  0  0  0  0  0  0
  -89.3132   29.8572   -1.3101 C   0  0  0  0  0  0  0  0  0  0  0  0
  -88.3782   30.4014   -0.2592 C   0  0  0  0  0  0  0  0  0  0  0  0
  -86.9854   30.1007   -0.6631 N   0  0  0  0  0  0  0  0  0  0  0  0
  -86.6747   28.7932   -1.1271 C   0  0  0  0  0  0  0  0  0  0  0  0
  -87.7735   28.1562   -1.9947 C   0  0  0  0  0  0  0  0  0  0  0  0
  -86.1091   31.2102   -0.5625 C   0  0  0  0  0  0  0  0  0  0  0  0
  -86.3766   32.3724   -1.2384 N   0  0  0  0  0  0  0  0  0  0  0  0
  -85.5525   33.4222   -1.1956 C   0  0  0  0  0  0  0  0  0  0  0  0
  -84.4209   33.3956   -0.4900 N   0  0  0  0  0  0  0  0  0  0  0  0
  -84.0919   32.2941    0.1979 C   0  0  0  0  0  0  0  0  0  0  0  0
  -82.8906   32.2127    0.9700 N   0  0  0  0  0  0  0  0  0  0  0  0
  -84.9606   31.1845    0.1549 C   0  0  0  0  0  0  0  0  0  0  0  0
  -81.9563   32.1906    0.4746 H   0  0  0  0  0  0  0  0  0  0  0  0
  -82.8806   32.1732    2.0074 H   0  0  0  0  0  0  0  0  0  0  0  0
  -84.5856   30.0375    0.9464 C   0  0  0  0  0  0  0  0  0  0  0  0
  -84.2724   29.1018    1.5574 N   0  0  0  0  0  0  0  0  0  0  0  0
  -90.5616   25.7587   -0.3143 C   0  0  0  0  0  0  0  0  0  0  0  0
  -89.5424   24.7005   -0.6151 C   0  0  0  0  0  0  0  0  0  0  0  0
  -88.3897   24.7654    0.1241 O   0  0  0  0  0  0  0  0  0  0  0  0
  -88.1042   23.8759    0.4899 H   0  0  0  0  0  0  0  0  0  0  0  0
  6  7  1  0  0  0
  7  8  2  0  0  0
  8  9  1  0  0  0
  9  1  1  0  0  0
  1  2  2  0  0  0
  2  3  1  0  0  0
  3 31  1  0  0  0
 31 32  1  0  0  0
 32 33  1  0  0  0
  3  4  1  0  0  0
  4 14  1  0  0  0
 14 15  1  0  0  0
 15 16  1  0  0  0
 16 17  1  0  0  0
 17 20  1  0  0  0
 20 21  2  0  0  0
 21 22  1  0  0  0
 22 23  2  0  0  0
 23 24  1  0  0  0
 24 25  1  0  0  0
 24 26  2  0  0  0
 26 29  1  0  0  0
 29 30  3  0  0  0
 17 18  1  0  0  0
 18 19  1  0  0  0
  4  5  2  0  0  0
  9 10  2  0  0  0
 10 11  1  0  0  0
 11 12  2  0  0  0
 12 13  1  0  0  0
 12  7  1  0  0  0
  5  1  1  0  0  0
 19 14  1  0  0  0
 26 20  1  0  0  0
 33 34  1  0  0  0
 25 27  1  0  0  0
 25 28  1  0  0  0
M  END
> <minimizedAffinity>
-7.76438

> <CNNscore>
0.3797042668

> <CNNaffinity>
6.7688674927

> <CNN_VS>
2.5701677799

> <CNNaffinity_variance>
0.2832885385

$$$$
[H]OC([H])([H])C([H])([H])n1c(C2([H])C([H])([H])C([H])([H])N(c3nc([H])nc(N([H])[H])c3C#N)C([H])([H])C2([H])[H])nc(-c2c([H])c([H])c(F)c(C([H])([H])[H])c2[H])c1[H]


 34 37  0  0  0  0  0  0  0  0999 V2000
  -91.7213   26.8680   -2.9638 C   0  0  0  0  0  0  0  0  0  0  0  0
  -91.8156   26.3974   -1.6752 C   0  0  0  0  0  0  0  0  0  0  0  0
  -90.8051   26.9874   -0.9613 N   0  0  0  0  0  0  0  0  0  0  0  0
  -90.1114   27.7907   -1.7716 C   0  0  0  0  0  0  0  0  0  0  0  0
  -90.6858   27.7022   -2.9821 N   0  0  0  0  0  0  0  0  0  0  0  0
  -94.1501   27.8938   -7.2132 C   0  0  0  0  0  0  0  0  0  0  0  0
  -93.7862   26.9696   -6.1112 C   0  0  0  0  0  0  0  0  0  0  0  0
  -92.9363   27.3559   -5.0742 C   0  0  0  0  0  0  0  0  0  0  0  0
  -92.6053   26.4971   -4.0612 C   0  0  0  0  0  0  0  0  0  0  0  0
  -93.1251   25.2217   -4.0680 C   0  0  0  0  0  0  0  0  0  0  0  0
  -93.9687   24.8112   -5.0809 C   0  0  0  0  0  0  0  0  0  0  0  0
  -94.2986   25.6893   -6.1042 C   0  0  0  0  0  0  0  0  0  0  0  0
  -95.1376   25.2395   -7.0866 F   0  0  0  0  0  0  0  0  0  0  0  0
  -88.9500   28.6116   -1.4372 C   0  0  0  0  0  0  0  0  0  0  0  0
  -87.6961   27.7714   -1.2896 C   0  0  0  0  0  0  0  0  0  0  0  0
  -86.5582   28.7548   -1.4033 C   0  0  0  0  0  0  0  0  0  0  0  0
  -86.6441   29.7108   -0.2755 N   0  0  0  0  0  0  0  0  0  0  0  0
  -87.9062   30.2838    0.0412 C   0  0  0  0  0  0  0  0  0  0  0  0
  -89.0912   29.3137   -0.1032 C   0  0  0  0  0  0  0  0  0  0  0  0
  -85.4119   29.9171    0.3939 C   0  0  0  0  0  0  0  0  0  0  0  0
  -84.8715   28.9307    1.1776 N   0  0  0  0  0  0  0  0  0  0  0  0
  -83.7324   29.1064    1.8518 C   0  0  0  0  0  0  0  0  0  0  0  0
  -83.0571   30.2555    1.7981 N   0  0  0  0  0  0  0  0  0  0  0  0
  -83.5227   31.2661    1.0521 C   0  0  0  0  0  0  0  0  0  0  0  0
  -82.8383   32.5186    0.9599 N   0  0  0  0  0  0  0  0  0  0  0  0
  -84.7249   31.0830    0.3387 C   0  0  0  0  0  0  0  0  0  0  0  0
  -82.7999   33.1521    1.8061 H   0  0  0  0  0  0  0  0  0  0  0  0
  -82.3679   32.8497    0.0956 H   0  0  0  0  0  0  0  0  0  0  0  0
  -85.1632   32.1840   -0.4849 C   0  0  0  0  0  0  0  0  0  0  0  0
  -85.5240   33.0491   -1.1692 N   0  0  0  0  0  0  0  0  0  0  0  0
  -90.6135   26.7215    0.4335 C   0  0  0  0  0  0  0  0  0  0  0  0
  -89.9675   25.3784    0.5997 C   0  0  0  0  0  0  0  0  0  0  0  0
  -88.7945   25.3724    1.3093 O   0  0  0  0  0  0  0  0  0  0  0  0
  -88.7519   24.6424    1.9962 H   0  0  0  0  0  0  0  0  0  0  0  0
  6  7  1  0  0  0
  7  8  2  0  0  0
  8  9  1  0  0  0
  9  1  1  0  0  0
  1  2  2  0  0  0
  2  3  1  0  0  0
  3 31  1  0  0  0
 31 32  1  0  0  0
 32 33  1  0  0  0
  3  4  1  0  0  0
  4 14  1  0  0  0
 14 15  1  0  0  0
 15 16  1  0  0  0
 16 17  1  0  0  0
 17 20  1  0  0  0
 20 21  2  0  0  0
 21 22  1  0  0  0
 22 23  2  0  0  0
 23 24  1  0  0  0
 24 25  1  0  0  0
 24 26  2  0  0  0
 26 29  1  0  0  0
 29 30  3  0  0  0
 17 18  1  0  0  0
 18 19  1  0  0  0
  4  5  2  0  0  0
  9 10  2  0  0  0
 10 11  1  0  0  0
 11 12  2  0  0  0
 12 13  1  0  0  0
 12  7  1  0  0  0
  5  1  1  0  0  0
 19 14  1  0  0  0
 26 20  1  0  0  0
 33 34  1  0  0  0
 25 27  1  0  0  0
 25 28  1  0  0  0
M  END
> <minimizedAffinity>
-7.61874

> <CNNscore>
0.1590488404

> <CNNaffinity>
6.4772424698

> <CNN_VS>
1.0301978588

> <CNNaffinity_variance>
0.1685425341

$$$$
[H]OC([H])([H])C([H])([H])n1c(C2([H])C([H])([H])C([H])([H])N(c3nc([H])nc(N([H])[H])c3C#N)C([H])([H])C2([H])[H])nc(-c2c([H])c([H])c(F)c(C([H])([H])[H])c2[H])c1[H]


 34 37  0  0  0  0  0  0  0  0999 V2000
  -87.2906   29.4438    0.0280 C   0  0  0  0  0  0  0  0  0  0  0  0
  -87.4096   28.5567    1.0717 C   0  0  0  0  0  0  0  0  0  0  0  0
  -88.4507   27.7193    0.7653 N   0  0  0  0  0  0  0  0  0  0  0  0
  -88.9578   28.0709   -0.4189 C   0  0  0  0  0  0  0  0  0  0  0  0
  -88.2377   29.1200   -0.8476 N   0  0  0  0  0  0  0  0  0  0  0  0
  -82.6609   31.2362    0.6305 C   0  0  0  0  0  0  0  0  0  0  0  0
  -84.0783   31.3992    0.2238 C   0  0  0  0  0  0  0  0  0  0  0  0
  -84.9984   30.3546    0.3191 C   0  0  0  0  0  0  0  0  0  0  0  0
  -86.3044   30.5131   -0.0584 C   0  0  0  0  0  0  0  0  0  0  0  0
  -86.7176   31.7342   -0.5435 C   0  0  0  0  0  0  0  0  0  0  0  0
  -85.8298   32.7862   -0.6491 C   0  0  0  0  0  0  0  0  0  0  0  0
  -84.5071   32.6158   -0.2638 C   0  0  0  0  0  0  0  0  0  0  0  0
  -83.6631   33.6854   -0.3860 F   0  0  0  0  0  0  0  0  0  0  0  0
  -90.0772   27.4578   -1.1300 C   0  0  0  0  0  0  0  0  0  0  0  0
  -89.7003   27.0879   -2.5517 C   0  0  0  0  0  0  0  0  0  0  0  0
  -90.7507   26.0949   -2.9824 C   0  0  0  0  0  0  0  0  0  0  0  0
  -92.0686   26.7704   -2.9839 N   0  0  0  0  0  0  0  0  0  0  0  0
  -92.4244   27.5787   -1.8696 C   0  0  0  0  0  0  0  0  0  0  0  0
  -91.2577   28.3931   -1.2853 C   0  0  0  0  0  0  0  0  0  0  0  0
  -92.8263   26.5424   -4.1598 C   0  0  0  0  0  0  0  0  0  0  0  0
  -93.4423   25.3356   -4.3682 N   0  0  0  0  0  0  0  0  0  0  0  0
  -94.1313   25.0753   -5.4820 C   0  0  0  0  0  0  0  0  0  0  0  0
  -94.2573   25.9793   -6.4547 N   0  0  0  0  0  0  0  0  0  0  0  0
  -93.6834   27.1826   -6.3226 C   0  0  0  0  0  0  0  0  0  0  0  0
  -93.7873   28.1875   -7.3350 N   0  0  0  0  0  0  0  0  0  0  0  0
  -92.9559   27.4602   -5.1473 C   0  0  0  0  0  0  0  0  0  0  0  0
  -93.2927   28.0457   -8.2592 H   0  0  0  0  0  0  0  0  0  0  0  0
  -94.3294   29.0648   -7.2149 H   0  0  0  0  0  0  0  0  0  0  0  0
  -92.3931   28.7841   -5.0317 C   0  0  0  0  0  0  0  0  0  0  0  0
  -91.9321   29.8473   -4.9685 N   0  0  0  0  0  0  0  0  0  0  0  0
  -88.8483   26.6593    1.6433 C   0  0  0  0  0  0  0  0  0  0  0  0
  -89.5426   27.2384    2.8398 C   0  0  0  0  0  0  0  0  0  0  0  0
  -90.7322   27.8694    2.5826 O   0  0  0  0  0  0  0  0  0  0  0  0
  -91.4620   27.6126    3.2213 H   0  0  0  0  0  0  0  0  0  0  0  0
  6  7  1  0  0  0
  7  8  2  0  0  0
  8  9  1  0  0  0
  9  1  1  0  0  0
  1  2  2  0  0  0
  2  3  1  0  0  0
  3 31  1  0  0  0
 31 32  1  0  0  0
 32 33  1  0  0  0
  3  4  1  0  0  0
  4 14  1  0  0  0
 14 15  1  0  0  0
 15 16  1  0  0  0
 16 17  1  0  0  0
 17 20  1  0  0  0
 20 21  2  0  0  0
 21 22  1  0  0  0
 22 23  2  0  0  0
 23 24  1  0  0  0
 24 25  1  0  0  0
 24 26  2  0  0  0
 26 29  1  0  0  0
 29 30  3  0  0  0
 17 18  1  0  0  0
 18 19  1  0  0  0
  4  5  2  0  0  0
  9 10  2  0  0  0
 10 11  1  0  0  0
 11 12  2  0  0  0
 12 13  1  0  0  0
 12  7  1  0  0  0
  5  1  1  0  0  0
 19 14  1  0  0  0
 26 20  1  0  0  0
 33 34  1  0  0  0
 25 27  1  0  0  0
 25 28  1  0  0  0
M  END
> <minimizedAffinity>
-8.07743

> <CNNscore>
0.0598594025

> <CNNaffinity>
5.6286764145

> <CNN_VS>
0.3369292021

> <CNNaffinity_variance>
0.2752805352

$$$$
[H]OC([H])([H])C([H])([H])n1c(C2([H])C([H])([H])C([H])([H])N(c3nc([H])nc(N([H])[H])c3C#N)C([H])([H])C2([H])[H])nc(-c2c([H])c([H])c(F)c(C([H])([H])[H])c2[H])c1[H]


 34 37  0  0  0  0  0  0  0  0999 V2000
  -88.9419   34.6532   -5.3446 C   0  0  0  0  0  0  0  0  0  0  0  0
  -90.2103   34.1829   -5.5906 C   0  0  0  0  0  0  0  0  0  0  0  0
  -90.3974   33.0975   -4.7747 N   0  0  0  0  0  0  0  0  0  0  0  0
  -89.2920   32.9009   -4.0518 C   0  0  0  0  0  0  0  0  0  0  0  0
  -88.4221   33.8573   -4.4145 N   0  0  0  0  0  0  0  0  0  0  0  0
  -88.7738   38.0972   -8.9667 C   0  0  0  0  0  0  0  0  0  0  0  0
  -88.2283   37.4729   -7.7365 C   0  0  0  0  0  0  0  0  0  0  0  0
  -88.8391   36.3725   -7.1340 C   0  0  0  0  0  0  0  0  0  0  0  0
  -88.3295   35.8022   -5.9989 C   0  0  0  0  0  0  0  0  0  0  0  0
  -87.1862   36.3292   -5.4401 C   0  0  0  0  0  0  0  0  0  0  0  0
  -86.5600   37.4176   -6.0139 C   0  0  0  0  0  0  0  0  0  0  0  0
  -87.0843   37.9892   -7.1651 C   0  0  0  0  0  0  0  0  0  0  0  0
  -86.4306   39.0659   -7.6988 F   0  0  0  0  0  0  0  0  0  0  0  0
  -89.0465   31.8576   -3.0590 C   0  0  0  0  0  0  0  0  0  0  0  0
  -88.6305   32.4441   -1.7237 C   0  0  0  0  0  0  0  0  0  0  0  0
  -88.8574   31.3341   -0.7281 C   0  0  0  0  0  0  0  0  0  0  0  0
  -87.9631   30.2034   -1.0677 N   0  0  0  0  0  0  0  0  0  0  0  0
  -87.8715   29.7870   -2.4240 C   0  0  0  0  0  0  0  0  0  0  0  0
  -87.9027   30.9416   -3.4398 C   0  0  0  0  0  0  0  0  0  0  0  0
  -87.2576   29.6791    0.0441 C   0  0  0  0  0  0  0  0  0  0  0  0
  -87.6811   28.5290    0.6582 N   0  0  0  0  0  0  0  0  0  0  0  0
  -87.0618   28.0296    1.7307 C   0  0  0  0  0  0  0  0  0  0  0  0
  -85.9940   28.6257    2.2634 N   0  0  0  0  0  0  0  0  0  0  0  0
  -85.5208   29.7539    1.7176 C   0  0  0  0  0  0  0  0  0  0  0  0
  -84.3798   30.4329    2.2492 N   0  0  0  0  0  0  0  0  0  0  0  0
  -86.1724   30.2829    0.5848 C   0  0  0  0  0  0  0  0  0  0  0  0
  -84.4524   30.9107    3.1900 H   0  0  0  0  0  0  0  0  0  0  0  0
  -83.4669   30.4861    1.7574 H   0  0  0  0  0  0  0  0  0  0  0  0
  -85.6002   31.4748    0.0064 C   0  0  0  0  0  0  0  0  0  0  0  0
  -85.1515   32.4250   -0.4863 N   0  0  0  0  0  0  0  0  0  0  0  0
  -91.6269   32.3619   -4.7696 C   0  0  0  0  0  0  0  0  0  0  0  0
  -92.5478   32.9253   -5.8106 C   0  0  0  0  0  0  0  0  0  0  0  0
  -92.8350   32.0887   -6.8580 O   0  0  0  0  0  0  0  0  0  0  0  0
  -93.8116   32.0623   -7.0864 H   0  0  0  0  0  0  0  0  0  0  0  0
  6  7  1  0  0  0
  7  8  2  0  0  0
  8  9  1  0  0  0
  9  1  1  0  0  0
  1  2  2  0  0  0
  2  3  1  0  0  0
  3 31  1  0  0  0
 31 32  1  0  0  0
 32 33  1  0  0  0
  3  4  1  0  0  0
  4 14  1  0  0  0
 14 15  1  0  0  0
 15 16  1  0  0  0
 16 17  1  0  0  0
 17 20  1  0  0  0
 20 21  2  0  0  0
 21 22  1  0  0  0
 22 23  2  0  0  0
 23 24  1  0  0  0
 24 25  1  0  0  0
 24 26  2  0  0  0
 26 29  1  0  0  0
 29 30  3  0  0  0
 17 18  1  0  0  0
 18 19  1  0  0  0
  4  5  2  0  0  0
  9 10  2  0  0  0
 10 11  1  0  0  0
 11 12  2  0  0  0
 12 13  1  0  0  0
 12  7  1  0  0  0
  5  1  1  0  0  0
 19 14  1  0  0  0
 26 20  1  0  0  0
 33 34  1  0  0  0
 25 27  1  0  0  0
 25 28  1  0  0  0
M  END
> <minimizedAffinity>
-7.39089

> <CNNscore>
0.0589160100

> <CNNaffinity>
6.2186193466

> <CNN_VS>
0.3663762510

> <CNNaffinity_variance>
0.3106738925

$$$$
[H]OC([H])([H])C([H])([H])n1c(C2([H])C([H])([H])C([H])([H])N(c3nc([H])nc(N([H])[H])c3C#N)C([H])([H])C2([H])[H])nc(-c2c([H])c([H])c(F)c(C([H])([H])[H])c2[H])c1[H]


 34 37  0  0  0  0  0  0  0  0999 V2000
  -87.1073   30.8740   -0.5924 C   0  0  0  0  0  0  0  0  0  0  0  0
  -88.2839   30.1845   -0.4167 C   0  0  0  0  0  0  0  0  0  0  0  0
  -89.2052   30.7482   -1.2607 N   0  0  0  0  0  0  0  0  0  0  0  0
  -88.6262   31.7463   -1.9328 C   0  0  0  0  0  0  0  0  0  0  0  0
  -87.3528   31.8041   -1.5107 N   0  0  0  0  0  0  0  0  0  0  0  0
  -84.1900   27.9851    2.2630 C   0  0  0  0  0  0  0  0  0  0  0  0
  -84.4360   29.2262    1.4883 C   0  0  0  0  0  0  0  0  0  0  0  0
  -85.6417   29.4554    0.8246 C   0  0  0  0  0  0  0  0  0  0  0  0
  -85.8607   30.6031    0.1119 C   0  0  0  0  0  0  0  0  0  0  0  0
  -84.8653   31.5530    0.0500 C   0  0  0  0  0  0  0  0  0  0  0  0
  -83.6618   31.3540    0.6965 C   0  0  0  0  0  0  0  0  0  0  0  0
  -83.4489   30.1866    1.4169 C   0  0  0  0  0  0  0  0  0  0  0  0
  -82.2415   30.0322    2.0414 F   0  0  0  0  0  0  0  0  0  0  0  0
  -89.2337   32.6225   -2.9316 C   0  0  0  0  0  0  0  0  0  0  0  0
  -88.5593   32.4809   -4.2827 C   0  0  0  0  0  0  0  0  0  0  0  0
  -89.5427   33.0637   -5.2667 C   0  0  0  0  0  0  0  0  0  0  0  0
  -89.7264   34.5004   -4.9579 N   0  0  0  0  0  0  0  0  0  0  0  0
  -89.9255   34.8895   -3.6049 C   0  0  0  0  0  0  0  0  0  0  0  0
  -89.0886   34.0907   -2.5912 C   0  0  0  0  0  0  0  0  0  0  0  0
  -89.6445   35.3441   -6.0939 C   0  0  0  0  0  0  0  0  0  0  0  0
  -90.6532   35.3624   -7.0219 N   0  0  0  0  0  0  0  0  0  0  0  0
  -90.5897   36.1166   -8.1219 C   0  0  0  0  0  0  0  0  0  0  0  0
  -89.5373   36.8955   -8.3771 N   0  0  0  0  0  0  0  0  0  0  0  0
  -88.5121   36.9312   -7.5155 C   0  0  0  0  0  0  0  0  0  0  0  0
  -87.3601   37.7484   -7.7410 N   0  0  0  0  0  0  0  0  0  0  0  0
  -88.5769   36.1362   -6.3529 C   0  0  0  0  0  0  0  0  0  0  0  0
  -86.6980   37.5051   -8.5292 H   0  0  0  0  0  0  0  0  0  0  0  0
  -87.1303   38.5820   -7.1664 H   0  0  0  0  0  0  0  0  0  0  0  0
  -87.4690   36.2414   -5.4341 C   0  0  0  0  0  0  0  0  0  0  0  0
  -86.5949   36.3108   -4.6738 N   0  0  0  0  0  0  0  0  0  0  0  0
  -90.5511   30.2632   -1.3388 C   0  0  0  0  0  0  0  0  0  0  0  0
  -90.8487   29.4253   -0.1312 C   0  0  0  0  0  0  0  0  0  0  0  0
  -91.9709   28.6428   -0.2190 O   0  0  0  0  0  0  0  0  0  0  0  0
  -91.8217   27.7013    0.0937 H   0  0  0  0  0  0  0  0  0  0  0  0
  6  7  1  0  0  0
  7  8  2  0  0  0
  8  9  1  0  0  0
  9  1  1  0  0  0
  1  2  2  0  0  0
  2  3  1  0  0  0
  3 31  1  0  0  0
 31 32  1  0  0  0
 32 33  1  0  0  0
  3  4  1  0  0  0
  4 14  1  0  0  0
 14 15  1  0  0  0
 15 16  1  0  0  0
 16 17  1  0  0  0
 17 20  1  0  0  0
 20 21  2  0  0  0
 21 22  1  0  0  0
 22 23  2  0  0  0
 23 24  1  0  0  0
 24 25  1  0  0  0
 24 26  2  0  0  0
 26 29  1  0  0  0
 29 30  3  0  0  0
 17 18  1  0  0  0
 18 19  1  0  0  0
  4  5  2  0  0  0
  9 10  2  0  0  0
 10 11  1  0  0  0
 11 12  2  0  0  0
 12 13  1  0  0  0
 12  7  1  0  0  0
  5  1  1  0  0  0
 19 14  1  0  0  0
 26 20  1  0  0  0
 33 34  1  0  0  0
 25 27  1  0  0  0
 25 28  1  0  0  0
M  END
> <minimizedAffinity>
-8.14637

> <CNNscore>
0.0562440269

> <CNNaffinity>
5.7645168304

> <CNN_VS>
0.3242196441

> <CNNaffinity_variance>
0.1790306717

$$$$
[H]OC([H])([H])C([H])([H])n1c(C2([H])C([H])([H])C([H])([H])N(c3nc([H])nc(N([H])[H])c3C#N)C([H])([H])C2([H])[H])nc(-c2c([H])c([H])c(F)c(C([H])([H])[H])c2[H])c1[H]


 34 37  0  0  0  0  0  0  0  0999 V2000
  -89.3355   33.2227   -4.2753 C   0  0  0  0  0  0  0  0  0  0  0  0
  -90.4700   32.4865   -4.0273 C   0  0  0  0  0  0  0  0  0  0  0  0
  -90.1674   31.6202   -3.0091 N   0  0  0  0  0  0  0  0  0  0  0  0
  -88.8983   31.8093   -2.6396 C   0  0  0  0  0  0  0  0  0  0  0  0
  -88.4133   32.7869   -3.4219 N   0  0  0  0  0  0  0  0  0  0  0  0
  -91.0467   35.7489   -8.2376 C   0  0  0  0  0  0  0  0  0  0  0  0
  -90.0197   35.4982   -7.1967 C   0  0  0  0  0  0  0  0  0  0  0  0
  -90.1662   34.4905   -6.2428 C   0  0  0  0  0  0  0  0  0  0  0  0
  -89.2141   34.2657   -5.2856 C   0  0  0  0  0  0  0  0  0  0  0  0
  -88.0852   35.0546   -5.2659 C   0  0  0  0  0  0  0  0  0  0  0  0
  -87.9127   36.0592   -6.1971 C   0  0  0  0  0  0  0  0  0  0  0  0
  -88.8840   36.2797   -7.1640 C   0  0  0  0  0  0  0  0  0  0  0  0
  -88.6708   37.2859   -8.0661 F   0  0  0  0  0  0  0  0  0  0  0  0
  -88.1556   31.1041   -1.5975 C   0  0  0  0  0  0  0  0  0  0  0  0
  -87.0884   31.9860   -0.9785 C   0  0  0  0  0  0  0  0  0  0  0  0
  -86.7425   31.3135    0.3265 C   0  0  0  0  0  0  0  0  0  0  0  0
  -86.1687   29.9798    0.0343 N   0  0  0  0  0  0  0  0  0  0  0  0
  -86.8195   29.1486   -0.9180 C   0  0  0  0  0  0  0  0  0  0  0  0
  -87.3939   29.9073   -2.1265 C   0  0  0  0  0  0  0  0  0  0  0  0
  -84.9752   29.7028    0.7468 C   0  0  0  0  0  0  0  0  0  0  0  0
  -83.8751   30.5080    0.6026 N   0  0  0  0  0  0  0  0  0  0  0  0
  -82.7240   30.2532    1.2295 C   0  0  0  0  0  0  0  0  0  0  0  0
  -82.5829   29.1976    2.0326 N   0  0  0  0  0  0  0  0  0  0  0  0
  -83.6147   28.3649    2.2238 C   0  0  0  0  0  0  0  0  0  0  0  0
  -83.5169   27.2188    3.0740 N   0  0  0  0  0  0  0  0  0  0  0  0
  -84.8315   28.6320    1.5636 C   0  0  0  0  0  0  0  0  0  0  0  0
  -82.9068   26.4062    2.7806 H   0  0  0  0  0  0  0  0  0  0  0  0
  -84.0186   27.1352    3.9791 H   0  0  0  0  0  0  0  0  0  0  0  0
  -85.9265   27.7320    1.8349 C   0  0  0  0  0  0  0  0  0  0  0  0
  -86.8014   26.9938    2.0262 N   0  0  0  0  0  0  0  0  0  0  0  0
  -91.1355   30.7003   -2.4900 C   0  0  0  0  0  0  0  0  0  0  0  0
  -91.2810   29.5452   -3.4355 C   0  0  0  0  0  0  0  0  0  0  0  0
  -90.4630   28.4735   -3.1867 O   0  0  0  0  0  0  0  0  0  0  0  0
  -90.9427   27.5932   -3.2244 H   0  0  0  0  0  0  0  0  0  0  0  0
  6  7  1  0  0  0
  7  8  2  0  0  0
  8  9  1  0  0  0
  9  1  1  0  0  0
  1  2  2  0  0  0
  2  3  1  0  0  0
  3 31  1  0  0  0
 31 32  1  0  0  0
 32 33  1  0  0  0
  3  4  1  0  0  0
  4 14  1  0  0  0
 14 15  1  0  0  0
 15 16  1  0  0  0
 16 17  1  0  0  0
 17 20  1  0  0  0
 20 21  2  0  0  0
 21 22  1  0  0  0
 22 23  2  0  0  0
 23 24  1  0  0  0
 24 25  1  0  0  0
 24 26  2  0  0  0
 26 29  1  0  0  0
 29 30  3  0  0  0
 17 18  1  0  0  0
 18 19  1  0  0  0
  4  5  2  0  0  0
  9 10  2  0  0  0
 10 11  1  0  0  0
 11 12  2  0  0  0
 12 13  1  0  0  0
 12  7  1  0  0  0
  5  1  1  0  0  0
 19 14  1  0  0  0
 26 20  1  0  0  0
 33 34  1  0  0  0
 25 27  1  0  0  0
 25 28  1  0  0  0
M  END
> <minimizedAffinity>
-7.86250

> <CNNscore>
0.0463703349

> <CNNaffinity>
6.1890096664

> <CNN_VS>
0.2869864404

> <CNNaffinity_variance>
0.1107874289

$$$$
[H]OC([H])([H])C([H])([H])n1c(C2([H])C([H])([H])C([H])([H])N(c3nc([H])nc(N([H])[H])c3C#N)C([H])([H])C2([H])[H])nc(-c2c([H])c([H])c(F)c(C([H])([H])[H])c2[H])c1[H]


 34 37  0  0  0  0  0  0  0  0999 V2000
  -86.7651   29.3143    0.2865 C   0  0  0  0  0  0  0  0  0  0  0  0
  -87.3399   28.2883    0.9989 C   0  0  0  0  0  0  0  0  0  0  0  0
  -88.5548   28.0325    0.4179 N   0  0  0  0  0  0  0  0  0  0  0  0
  -88.7284   28.8643   -0.6121 C   0  0  0  0  0  0  0  0  0  0  0  0
  -87.6291   29.6331   -0.6729 N   0  0  0  0  0  0  0  0  0  0  0  0
  -83.3253   32.8956   -0.3065 C   0  0  0  0  0  0  0  0  0  0  0  0
  -83.7880   31.6203    0.2939 C   0  0  0  0  0  0  0  0  0  0  0  0
  -85.0426   31.0815    0.0066 C   0  0  0  0  0  0  0  0  0  0  0  0
  -85.4621   29.9044    0.5648 C   0  0  0  0  0  0  0  0  0  0  0  0
  -84.6237   29.2377    1.4306 C   0  0  0  0  0  0  0  0  0  0  0  0
  -83.3765   29.7465    1.7338 C   0  0  0  0  0  0  0  0  0  0  0  0
  -82.9599   30.9412    1.1627 C   0  0  0  0  0  0  0  0  0  0  0  0
  -81.7165   31.4074    1.4918 F   0  0  0  0  0  0  0  0  0  0  0  0
  -89.8778   28.9483   -1.5100 C   0  0  0  0  0  0  0  0  0  0  0  0
  -89.6896   30.0276   -2.5587 C   0  0  0  0  0  0  0  0  0  0  0  0
  -90.6906   29.6955   -3.6368 C   0  0  0  0  0  0  0  0  0  0  0  0
  -92.0532   29.7982   -3.0657 N   0  0  0  0  0  0  0  0  0  0  0  0
  -92.3113   29.2039   -1.8002 C   0  0  0  0  0  0  0  0  0  0  0  0
  -91.1546   29.3374   -0.7951 C   0  0  0  0  0  0  0  0  0  0  0  0
  -92.9566   30.5350   -3.8719 C   0  0  0  0  0  0  0  0  0  0  0  0
  -93.4905   31.7141   -3.4203 N   0  0  0  0  0  0  0  0  0  0  0  0
  -94.3732   32.4127   -4.1386 C   0  0  0  0  0  0  0  0  0  0  0  0
  -94.7837   31.9989   -5.3384 N   0  0  0  0  0  0  0  0  0  0  0  0
  -94.3053   30.8555   -5.8469 C   0  0  0  0  0  0  0  0  0  0  0  0
  -94.7122   30.3665   -7.1279 N   0  0  0  0  0  0  0  0  0  0  0  0
  -93.3728   30.1163   -5.0909 C   0  0  0  0  0  0  0  0  0  0  0  0
  -95.7024   30.0187   -7.2596 H   0  0  0  0  0  0  0  0  0  0  0  0
  -94.0817   30.3318   -7.9521 H   0  0  0  0  0  0  0  0  0  0  0  0
  -92.8534   28.9149   -5.6988 C   0  0  0  0  0  0  0  0  0  0  0  0
  -92.4083   27.9629   -6.1912 N   0  0  0  0  0  0  0  0  0  0  0  0
  -89.4245   27.0063    0.9112 C   0  0  0  0  0  0  0  0  0  0  0  0
  -89.1171   25.7154    0.2123 C   0  0  0  0  0  0  0  0  0  0  0  0
  -89.3855   24.5785    0.9298 O   0  0  0  0  0  0  0  0  0  0  0  0
  -89.8725   23.8812    0.3978 H   0  0  0  0  0  0  0  0  0  0  0  0
  6  7  1  0  0  0
  7  8  2  0  0  0
  8  9  1  0  0  0
  9  1  1  0  0  0
  1  2  2  0  0  0
  2  3  1  0  0  0
  3 31  1  0  0  0
 31 32  1  0  0  0
 32 33  1  0  0  0
  3  4  1  0  0  0
  4 14  1  0  0  0
 14 15  1  0  0  0
 15 16  1  0  0  0
 16 17  1  0  0  0
 17 20  1  0  0  0
 20 21  2  0  0  0
 21 22  1  0  0  0
 22 23  2  0  0  0
 23 24  1  0  0  0
 24 25  1  0  0  0
 24 26  2  0  0  0
 26 29  1  0  0  0
 29 30  3  0  0  0
 17 18  1  0  0  0
 18 19  1  0  0  0
  4  5  2  0  0  0
  9 10  2  0  0  0
 10 11  1  0  0  0
 11 12  2  0  0  0
 12 13  1  0  0  0
 12  7  1  0  0  0
  5  1  1  0  0  0
 19 14  1  0  0  0
 26 20  1  0  0  0
 33 34  1  0  0  0
 25 27  1  0  0  0
 25 28  1  0  0  0
M  END
> <minimizedAffinity>
-7.75699

> <CNNscore>
0.0447116271

> <CNNaffinity>
5.7736406326

> <CNN_VS>
0.2581488788

> <CNNaffinity_variance>
0.1371855736

$$$$
[H]OC([H])([H])C([H])([H])n1c(C2([H])C([H])([H])C([H])([H])N(c3nc([H])nc(N([H])[H])c3C#N)C([H])([H])C2([H])[H])nc(-c2c([H])c([H])c(F)c(C([H])([H])[H])c2[H])c1[H]


 34 37  0  0  0  0  0  0  0  0999 V2000
  -87.8012   29.2011    0.1496 C   0  0  0  0  0  0  0  0  0  0  0  0
  -88.2186   28.2396    1.0395 C   0  0  0  0  0  0  0  0  0  0  0  0
  -89.4209   27.7678    0.5804 N   0  0  0  0  0  0  0  0  0  0  0  0
  -89.7379   28.4088   -0.5472 C   0  0  0  0  0  0  0  0  0  0  0  0
  -88.7400   29.2741   -0.7894 N   0  0  0  0  0  0  0  0  0  0  0  0
  -85.0974   33.3446   -0.5792 C   0  0  0  0  0  0  0  0  0  0  0  0
  -85.2412   31.9529   -0.0858 C   0  0  0  0  0  0  0  0  0  0  0  0
  -86.4401   31.2485   -0.2024 C   0  0  0  0  0  0  0  0  0  0  0  0
  -86.5646   29.9648    0.2555 C   0  0  0  0  0  0  0  0  0  0  0  0
  -85.4789   29.3559    0.8450 C   0  0  0  0  0  0  0  0  0  0  0  0
  -84.2798   30.0278    0.9742 C   0  0  0  0  0  0  0  0  0  0  0  0
  -84.1631   31.3298    0.5068 C   0  0  0  0  0  0  0  0  0  0  0  0
  -82.9563   31.9566    0.6560 F   0  0  0  0  0  0  0  0  0  0  0  0
  -90.9297   28.2294   -1.3731 C   0  0  0  0  0  0  0  0  0  0  0  0
  -90.5782   28.1198   -2.8443 C   0  0  0  0  0  0  0  0  0  0  0  0
  -91.7950   27.5011   -3.4857 C   0  0  0  0  0  0  0  0  0  0  0  0
  -92.9391   28.4272   -3.3220 N   0  0  0  0  0  0  0  0  0  0  0  0
  -93.1640   29.0184   -2.0487 C   0  0  0  0  0  0  0  0  0  0  0  0
  -91.8779   29.4075   -1.3000 C   0  0  0  0  0  0  0  0  0  0  0  0
  -93.6761   28.6411   -4.5136 C   0  0  0  0  0  0  0  0  0  0  0  0
  -94.5449   27.6868   -4.9758 N   0  0  0  0  0  0  0  0  0  0  0  0
  -95.2254   27.8406   -6.1144 C   0  0  0  0  0  0  0  0  0  0  0  0
  -95.0956   28.9354   -6.8652 N   0  0  0  0  0  0  0  0  0  0  0  0
  -94.2651   29.9127   -6.4779 C   0  0  0  0  0  0  0  0  0  0  0  0
  -94.0886   31.1065   -7.2456 N   0  0  0  0  0  0  0  0  0  0  0  0
  -93.5459   29.7530   -5.2759 C   0  0  0  0  0  0  0  0  0  0  0  0
  -93.5999   31.0532   -8.1821 H   0  0  0  0  0  0  0  0  0  0  0  0
  -94.4177   32.0402   -6.9326 H   0  0  0  0  0  0  0  0  0  0  0  0
  -92.6976   30.8507   -4.8782 C   0  0  0  0  0  0  0  0  0  0  0  0
  -92.0271   31.7504   -4.5817 N   0  0  0  0  0  0  0  0  0  0  0  0
  -90.1409   26.7406    1.2727 C   0  0  0  0  0  0  0  0  0  0  0  0
  -89.4730   25.4189    1.0357 C   0  0  0  0  0  0  0  0  0  0  0  0
  -89.5922   24.5077    2.0530 O   0  0  0  0  0  0  0  0  0  0  0  0
  -89.8416   23.5898    1.7341 H   0  0  0  0  0  0  0  0  0  0  0  0
  6  7  1  0  0  0
  7  8  2  0  0  0
  8  9  1  0  0  0
  9  1  1  0  0  0
  1  2  2  0  0  0
  2  3  1  0  0  0
  3 31  1  0  0  0
 31 32  1  0  0  0
 32 33  1  0  0  0
  3  4  1  0  0  0
  4 14  1  0  0  0
 14 15  1  0  0  0
 15 16  1  0  0  0
 16 17  1  0  0  0
 17 20  1  0  0  0
 20 21  2  0  0  0
 21 22  1  0  0  0
 22 23  2  0  0  0
 23 24  1  0  0  0
 24 25  1  0  0  0
 24 26  2  0  0  0
 26 29  1  0  0  0
 29 30  3  0  0  0
 17 18  1  0  0  0
 18 19  1  0  0  0
  4  5  2  0  0  0
  9 10  2  0  0  0
 10 11  1  0  0  0
 11 12  2  0  0  0
 12 13  1  0  0  0
 12  7  1  0  0  0
  5  1  1  0  0  0
 19 14  1  0  0  0
 26 20  1  0  0  0
 33 34  1  0  0  0
 25 27  1  0  0  0
 25 28  1  0  0  0
M  END
> <minimizedAffinity>
-7.32032

> <CNNscore>
0.0402733423

> <CNNaffinity>
5.7117452621

> <CNN_VS>
0.2300310731

> <CNNaffinity_variance>
0.0906409472

$$$$
[H]OC([H])([H])C([H])([H])n1c(C2([H])C([H])([H])C([H])([H])N(c3nc([H])nc(N([H])[H])c3C#N)C([H])([H])C2([H])[H])nc(-c2c([H])c([H])c(F)c(C([H])([H])[H])c2[H])c1[H]


 34 37  0  0  0  0  0  0  0  0999 V2000
  -87.2077   29.3668   -0.5535 C   0  0  0  0  0  0  0  0  0  0  0  0
  -88.3032   28.6047   -0.8847 C   0  0  0  0  0  0  0  0  0  0  0  0
  -89.0389   29.3345   -1.7820 N   0  0  0  0  0  0  0  0  0  0  0  0
  -88.4270   30.5012   -1.9995 C   0  0  0  0  0  0  0  0  0  0  0  0
  -87.3174   30.4985   -1.2432 N   0  0  0  0  0  0  0  0  0  0  0  0
  -82.7685   30.0561    1.6437 C   0  0  0  0  0  0  0  0  0  0  0  0
  -84.0195   29.2828    1.4487 C   0  0  0  0  0  0  0  0  0  0  0  0
  -85.0062   29.6896    0.5500 C   0  0  0  0  0  0  0  0  0  0  0  0
  -86.1577   28.9706    0.3760 C   0  0  0  0  0  0  0  0  0  0  0  0
  -86.3444   27.8182    1.1069 C   0  0  0  0  0  0  0  0  0  0  0  0
  -85.3856   27.3909    2.0037 C   0  0  0  0  0  0  0  0  0  0  0  0
  -84.2209   28.1269    2.1734 C   0  0  0  0  0  0  0  0  0  0  0  0
  -83.2988   27.6658    3.0726 F   0  0  0  0  0  0  0  0  0  0  0  0
  -88.8578   31.5872   -2.8768 C   0  0  0  0  0  0  0  0  0  0  0  0
  -88.0213   31.6495   -4.1403 C   0  0  0  0  0  0  0  0  0  0  0  0
  -88.8401   32.4716   -5.1039 C   0  0  0  0  0  0  0  0  0  0  0  0
  -88.9947   33.8362   -4.5496 N   0  0  0  0  0  0  0  0  0  0  0  0
  -89.3491   33.9825   -3.1805 C   0  0  0  0  0  0  0  0  0  0  0  0
  -88.6893   32.9535   -2.2467 C   0  0  0  0  0  0  0  0  0  0  0  0
  -88.7264   34.8667   -5.4850 C   0  0  0  0  0  0  0  0  0  0  0  0
  -87.5001   35.4787   -5.5143 N   0  0  0  0  0  0  0  0  0  0  0  0
  -87.2275   36.4781   -6.3568 C   0  0  0  0  0  0  0  0  0  0  0  0
  -88.1375   36.9358   -7.2181 N   0  0  0  0  0  0  0  0  0  0  0  0
  -89.3591   36.3868   -7.2488 C   0  0  0  0  0  0  0  0  0  0  0  0
  -90.3715   36.8396   -8.1521 N   0  0  0  0  0  0  0  0  0  0  0  0
  -89.6494   35.3310   -6.3608 C   0  0  0  0  0  0  0  0  0  0  0  0
  -90.7981   37.7977   -8.0148 H   0  0  0  0  0  0  0  0  0  0  0  0
  -90.7194   36.2733   -8.9498 H   0  0  0  0  0  0  0  0  0  0  0  0
  -90.9635   34.7431   -6.4613 C   0  0  0  0  0  0  0  0  0  0  0  0
  -92.0169   34.2588   -6.5134 N   0  0  0  0  0  0  0  0  0  0  0  0
  -90.2562   28.8303   -2.3448 C   0  0  0  0  0  0  0  0  0  0  0  0
  -90.2453   27.3315   -2.2918 C   0  0  0  0  0  0  0  0  0  0  0  0
  -89.7785   26.7055   -3.4185 O   0  0  0  0  0  0  0  0  0  0  0  0
  -89.1274   25.9684   -3.2201 H   0  0  0  0  0  0  0  0  0  0  0  0
  6  7  1  0  0  0
  7  8  2  0  0  0
  8  9  1  0  0  0
  9  1  1  0  0  0
  1  2  2  0  0  0
  2  3  1  0  0  0
  3 31  1  0  0  0
 31 32  1  0  0  0
 32 33  1  0  0  0
  3  4  1  0  0  0
  4 14  1  0  0  0
 14 15  1  0  0  0
 15 16  1  0  0  0
 16 17  1  0  0  0
 17 20  1  0  0  0
 20 21  2  0  0  0
 21 22  1  0  0  0
 22 23  2  0  0  0
 23 24  1  0  0  0
 24 25  1  0  0  0
 24 26  2  0  0  0
 26 29  1  0  0  0
 29 30  3  0  0  0
 17 18  1  0  0  0
 18 19  1  0  0  0
  4  5  2  0  0  0
  9 10  2  0  0  0
 10 11  1  0  0  0
 11 12  2  0  0  0
 12 13  1  0  0  0
 12  7  1  0  0  0
  5  1  1  0  0  0
 19 14  1  0  0  0
 26 20  1  0  0  0
 33 34  1  0  0  0
 25 27  1  0  0  0
 25 28  1  0  0  0
M  END
> <minimizedAffinity>
-8.81748

> <CNNscore>
0.0396420360

> <CNNaffinity>
5.7744307518

> <CNN_VS>
0.2289101928

> <CNNaffinity_variance>
0.1981477886

$$$$
[H]Cl.[H]O[C@]([H])(C(=O)N([H])[C@]([H])(C(=O)OC([H])([H])n1c([H])c(F)c(=O)n([H])c1=O)C([H])([H])C([H])(C([H])([H])[H])C([H])([H])[H])[C@]([H])(N([H])[H])C([H])([H])c1c([H])c([H])c([H])c([H])c1[H]


 37 38  0  0  0  0  0  0  0  0999 V2000
  -87.7458   32.1393   -2.4270 C   0  0  0  0  0  0  0  0  0  0  0  0
  -88.5924   31.0599   -1.9035 N   0  0  0  0  0  0  0  0  0  0  0  0
  -88.5651   29.7545   -2.4661 C   0  0  0  0  0  0  0  0  0  0  0  0
  -87.7927   29.5484   -3.4292 O   0  0  0  0  0  0  0  0  0  0  0  0
  -89.2406   31.2189   -1.1016 H   0  0  0  0  0  0  0  0  0  0  0  0
  -89.4118   28.6498   -1.9519 C   0  0  0  0  0  0  0  0  0  0  0  0
  -89.7593   27.8129   -3.0034 O   0  0  0  0  0  0  0  0  0  0  0  0
  -89.0492   27.1428   -3.1392 H   0  0  0  0  0  0  0  0  0  0  0  0
  -88.6848   27.8214   -0.9018 C   0  0  0  0  0  0  0  0  0  0  0  0
  -87.6507   27.0174   -1.4722 N   0  0  0  0  0  0  0  0  0  0  0  0
  -86.7818   26.9730   -0.9071 H   0  0  0  0  0  0  0  0  0  0  0  0
  -87.9396   26.1230   -1.8763 H   0  0  0  0  0  0  0  0  0  0  0  0
  -89.7237   26.9773   -0.2152 C   0  0  0  0  0  0  0  0  0  0  0  0
  -90.0023   27.3994    1.1728 C   0  0  0  0  0  0  0  0  0  0  0  0
  -90.9458   28.3630    1.4886 C   0  0  0  0  0  0  0  0  0  0  0  0
  -91.2045   28.7558    2.7904 C   0  0  0  0  0  0  0  0  0  0  0  0
  -90.5124   28.1817    3.8158 C   0  0  0  0  0  0  0  0  0  0  0  0
  -89.5679   27.2226    3.5511 C   0  0  0  0  0  0  0  0  0  0  0  0
  -89.3203   26.8418    2.2582 C   0  0  0  0  0  0  0  0  0  0  0  0
  -86.8352   32.6135   -1.3560 C   0  0  0  0  0  0  0  0  0  0  0  0
  -86.4282   33.8250   -1.4463 O   0  0  0  0  0  0  0  0  0  0  0  0
  -86.3809   31.9201   -0.2886 O   0  0  0  0  0  0  0  0  0  0  0  0
  -85.1196   31.6925    0.2046 C   0  0  0  0  0  0  0  0  0  0  0  0
  -84.8653   30.4438    0.8467 N   0  0  0  0  0  0  0  0  0  0  0  0
  -85.7009   29.3983    0.9302 C   0  0  0  0  0  0  0  0  0  0  0  0
  -85.3560   28.2192    1.6027 C   0  0  0  0  0  0  0  0  0  0  0  0
  -86.2137   27.1815    1.6722 F   0  0  0  0  0  0  0  0  0  0  0  0
  -84.1297   28.1140    2.2003 C   0  0  0  0  0  0  0  0  0  0  0  0
  -83.7210   27.1102    2.8247 O   0  0  0  0  0  0  0  0  0  0  0  0
  -83.3040   29.1847    2.1019 N   0  0  0  0  0  0  0  0  0  0  0  0
  -83.6619   30.2912    1.4552 C   0  0  0  0  0  0  0  0  0  0  0  0
  -82.8076   31.2428    1.4219 O   0  0  0  0  0  0  0  0  0  0  0  0
  -82.3514   29.1269    2.5559 H   0  0  0  0  0  0  0  0  0  0  0  0
  -88.5709   33.1899   -3.0783 C   0  0  0  0  0  0  0  0  0  0  0  0
  -89.4767   33.2833   -5.4092 C   0  0  0  0  0  0  0  0  0  0  0  0
  -88.2356   33.3988   -4.5174 C   0  0  0  0  0  0  0  0  0  0  0  0
  -87.6183   34.7953   -4.7157 C   0  0  0  0  0  0  0  0  0  0  0  0
 35 36  1  0  0  0
 36 37  1  0  0  0
 36 34  1  0  0  0
 34  1  1  0  0  0
  1  2  1  0  0  0
  2  3  1  0  0  0
  3  4  2  0  0  0
  3  6  1  0  0  0
  6  7  1  0  0  0
  6  9  1  0  0  0
  9 10  1  0  0  0
  9 13  1  0  0  0
 13 14  1  0  0  0
 14 15  2  0  0  0
 15 16  1  0  0  0
 16 17  2  0  0  0
 17 18  1  0  0  0
 18 19  2  0  0  0
  1 20  1  0  0  0
 20 21  2  0  0  0
 20 22  1  0  0  0
 22 23  1  0  0  0
 23 24  1  0  0  0
 24 25  1  0  0  0
 25 26  2  0  0  0
 26 27  1  0  0  0
 26 28  1  0  0  0
 28 29  2  0  0  0
 28 30  1  0  0  0
 30 31  1  0  0  0
 31 32  2  0  0  0
 19 14  1  0  0  0
 31 24  1  0  0  0
  2  5  1  0  0  0
  7  8  1  0  0  0
 10 11  1  0  0  0
 10 12  1  0  0  0
 30 33  1  0  0  0
M  END
> <minimizedAffinity>
-7.94809

> <CNNscore>
0.7753798366

> <CNNaffinity>
7.1660642624

> <CNN_VS>
5.5564217567

> <CNNaffinity_variance>
0.0928243548

$$$$
[H]Cl.[H]O[C@]([H])(C(=O)N([H])[C@]([H])(C(=O)OC([H])([H])n1c([H])c(F)c(=O)n([H])c1=O)C([H])([H])C([H])(C([H])([H])[H])C([H])([H])[H])[C@]([H])(N([H])[H])C([H])([H])c1c([H])c([H])c([H])c([H])c1[H]


 37 38  0  0  0  0  0  0  0  0999 V2000
  -86.2963   30.0163    0.3644 C   0  0  0  0  0  0  0  0  0  0  0  0
  -87.0826   28.9858   -0.3253 N   0  0  0  0  0  0  0  0  0  0  0  0
  -87.3902   27.7450    0.2968 C   0  0  0  0  0  0  0  0  0  0  0  0
  -86.9683   27.5528    1.4594 O   0  0  0  0  0  0  0  0  0  0  0  0
  -87.4397   29.1336   -1.2944 H   0  0  0  0  0  0  0  0  0  0  0  0
  -88.1836   26.6908   -0.3822 C   0  0  0  0  0  0  0  0  0  0  0  0
  -87.3845   26.0498   -1.3190 O   0  0  0  0  0  0  0  0  0  0  0  0
  -86.8818   25.3238   -0.8810 H   0  0  0  0  0  0  0  0  0  0  0  0
  -88.6979   25.6484    0.6007 C   0  0  0  0  0  0  0  0  0  0  0  0
  -88.8106   24.3554    0.0036 N   0  0  0  0  0  0  0  0  0  0  0  0
  -88.5099   23.5734    0.6154 H   0  0  0  0  0  0  0  0  0  0  0  0
  -89.6648   24.1724   -0.5290 H   0  0  0  0  0  0  0  0  0  0  0  0
  -90.0275   26.1409    1.1037 C   0  0  0  0  0  0  0  0  0  0  0  0
  -90.0389   26.4298    2.5524 C   0  0  0  0  0  0  0  0  0  0  0  0
  -89.8093   25.4585    3.5127 C   0  0  0  0  0  0  0  0  0  0  0  0
  -89.8204   25.7328    4.8693 C   0  0  0  0  0  0  0  0  0  0  0  0
  -90.0654   27.0049    5.2958 C   0  0  0  0  0  0  0  0  0  0  0  0
  -90.2986   28.0001    4.3808 C   0  0  0  0  0  0  0  0  0  0  0  0
  -90.2851   27.7165    3.0402 C   0  0  0  0  0  0  0  0  0  0  0  0
  -86.7121   31.3566   -0.1170 C   0  0  0  0  0  0  0  0  0  0  0  0
  -85.7792   32.2184   -0.2859 O   0  0  0  0  0  0  0  0  0  0  0  0
  -87.9626   31.7822   -0.4030 O   0  0  0  0  0  0  0  0  0  0  0  0
  -88.7030   31.7836   -1.5596 C   0  0  0  0  0  0  0  0  0  0  0  0
  -88.4190   32.7836   -2.5371 N   0  0  0  0  0  0  0  0  0  0  0  0
  -88.6155   34.1045   -2.4158 C   0  0  0  0  0  0  0  0  0  0  0  0
  -88.3167   35.0015   -3.4493 C   0  0  0  0  0  0  0  0  0  0  0  0
  -88.5229   36.3255   -3.3026 F   0  0  0  0  0  0  0  0  0  0  0  0
  -87.8069   34.5309   -4.6284 C   0  0  0  0  0  0  0  0  0  0  0  0
  -87.5059   35.2414   -5.6129 O   0  0  0  0  0  0  0  0  0  0  0  0
  -87.6180   33.1920   -4.7258 N   0  0  0  0  0  0  0  0  0  0  0  0
  -87.9122   32.3661   -3.7248 C   0  0  0  0  0  0  0  0  0  0  0  0
  -87.6956   31.1206   -3.9208 O   0  0  0  0  0  0  0  0  0  0  0  0
  -87.2254   32.8050   -5.6274 H   0  0  0  0  0  0  0  0  0  0  0  0
  -84.8422   29.7240    0.2693 C   0  0  0  0  0  0  0  0  0  0  0  0
  -83.6921   28.7180    2.2511 C   0  0  0  0  0  0  0  0  0  0  0  0
  -84.0972   30.0087    1.5307 C   0  0  0  0  0  0  0  0  0  0  0  0
  -82.8237   30.8156    1.2181 C   0  0  0  0  0  0  0  0  0  0  0  0
 35 36  1  0  0  0
 36 37  1  0  0  0
 36 34  1  0  0  0
 34  1  1  0  0  0
  1  2  1  0  0  0
  2  3  1  0  0  0
  3  4  2  0  0  0
  3  6  1  0  0  0
  6  7  1  0  0  0
  6  9  1  0  0  0
  9 10  1  0  0  0
  9 13  1  0  0  0
 13 14  1  0  0  0
 14 15  2  0  0  0
 15 16  1  0  0  0
 16 17  2  0  0  0
 17 18  1  0  0  0
 18 19  2  0  0  0
  1 20  1  0  0  0
 20 21  2  0  0  0
 20 22  1  0  0  0
 22 23  1  0  0  0
 23 24  1  0  0  0
 24 25  1  0  0  0
 25 26  2  0  0  0
 26 27  1  0  0  0
 26 28  1  0  0  0
 28 29  2  0  0  0
 28 30  1  0  0  0
 30 31  1  0  0  0
 31 32  2  0  0  0
 19 14  1  0  0  0
 31 24  1  0  0  0
  2  5  1  0  0  0
  7  8  1  0  0  0
 10 11  1  0  0  0
 10 12  1  0  0  0
 30 33  1  0  0  0
M  END
> <minimizedAffinity>
-8.58765

> <CNNscore>
0.6011895537

> <CNNaffinity>
6.7000570297

> <CNN_VS>
4.0280041695

> <CNNaffinity_variance>
0.1710042059

$$$$
[H]Cl.[H]O[C@]([H])(C(=O)N([H])[C@]([H])(C(=O)OC([H])([H])n1c([H])c(F)c(=O)n([H])c1=O)C([H])([H])C([H])(C([H])([H])[H])C([H])([H])[H])[C@]([H])(N([H])[H])C([H])([H])c1c([H])c([H])c([H])c([H])c1[H]


 37 38  0  0  0  0  0  0  0  0999 V2000
  -89.0730   27.8939   -2.4088 C   0  0  0  0  0  0  0  0  0  0  0  0
  -88.8619   26.9025   -1.3464 N   0  0  0  0  0  0  0  0  0  0  0  0
  -89.5596   25.6639   -1.3364 C   0  0  0  0  0  0  0  0  0  0  0  0
  -90.3666   25.4392   -2.2662 O   0  0  0  0  0  0  0  0  0  0  0  0
  -88.1923   27.0779   -0.5658 H   0  0  0  0  0  0  0  0  0  0  0  0
  -89.3604   24.6484   -0.2728 C   0  0  0  0  0  0  0  0  0  0  0  0
  -88.1424   24.8752    0.3531 O   0  0  0  0  0  0  0  0  0  0  0  0
  -88.2607   25.5380    1.0730 H   0  0  0  0  0  0  0  0  0  0  0  0
  -90.4578   24.7097    0.7805 C   0  0  0  0  0  0  0  0  0  0  0  0
  -91.6863   24.1519    0.3105 N   0  0  0  0  0  0  0  0  0  0  0  0
  -92.1941   23.5815    1.0126 H   0  0  0  0  0  0  0  0  0  0  0  0
  -92.2832   24.7688   -0.2462 H   0  0  0  0  0  0  0  0  0  0  0  0
  -90.6189   26.1565    1.1597 C   0  0  0  0  0  0  0  0  0  0  0  0
  -90.4012   26.4163    2.5976 C   0  0  0  0  0  0  0  0  0  0  0  0
  -90.1725   25.4052    3.5162 C   0  0  0  0  0  0  0  0  0  0  0  0
  -89.9685   25.6524    4.8628 C   0  0  0  0  0  0  0  0  0  0  0  0
  -89.9901   26.9367    5.3212 C   0  0  0  0  0  0  0  0  0  0  0  0
  -90.2131   27.9710    4.4480 C   0  0  0  0  0  0  0  0  0  0  0  0
  -90.4139   27.7141    3.1170 C   0  0  0  0  0  0  0  0  0  0  0  0
  -87.8460   28.7125   -2.5685 C   0  0  0  0  0  0  0  0  0  0  0  0
  -87.7305   29.3613   -3.6672 O   0  0  0  0  0  0  0  0  0  0  0  0
  -86.8294   28.8602   -1.6904 O   0  0  0  0  0  0  0  0  0  0  0  0
  -86.7215   29.5293   -0.4960 C   0  0  0  0  0  0  0  0  0  0  0  0
  -85.7894   29.0383    0.4665 N   0  0  0  0  0  0  0  0  0  0  0  0
  -84.5869   29.5556    0.7572 C   0  0  0  0  0  0  0  0  0  0  0  0
  -83.7387   28.9816    1.7126 C   0  0  0  0  0  0  0  0  0  0  0  0
  -82.5343   29.5211    1.9874 F   0  0  0  0  0  0  0  0  0  0  0  0
  -84.1347   27.8552    2.3805 C   0  0  0  0  0  0  0  0  0  0  0  0
  -83.4581   27.2630    3.2500 O   0  0  0  0  0  0  0  0  0  0  0  0
  -85.3541   27.3519    2.0682 N   0  0  0  0  0  0  0  0  0  0  0  0
  -86.1366   27.9215    1.1550 C   0  0  0  0  0  0  0  0  0  0  0  0
  -87.2679   27.3660    0.9360 O   0  0  0  0  0  0  0  0  0  0  0  0
  -85.6816   26.4820    2.5710 H   0  0  0  0  0  0  0  0  0  0  0  0
  -90.3271   28.6573   -2.1780 C   0  0  0  0  0  0  0  0  0  0  0  0
  -90.6816   31.1259   -1.9709 C   0  0  0  0  0  0  0  0  0  0  0  0
  -90.1396   29.8550   -1.3076 C   0  0  0  0  0  0  0  0  0  0  0  0
  -90.8716   29.6511    0.0315 C   0  0  0  0  0  0  0  0  0  0  0  0
 35 36  1  0  0  0
 36 37  1  0  0  0
 36 34  1  0  0  0
 34  1  1  0  0  0
  1  2  1  0  0  0
  2  3  1  0  0  0
  3  4  2  0  0  0
  3  6  1  0  0  0
  6  7  1  0  0  0
  6  9  1  0  0  0
  9 10  1  0  0  0
  9 13  1  0  0  0
 13 14  1  0  0  0
 14 15  2  0  0  0
 15 16  1  0  0  0
 16 17  2  0  0  0
 17 18  1  0  0  0
 18 19  2  0  0  0
  1 20  1  0  0  0
 20 21  2  0  0  0
 20 22  1  0  0  0
 22 23  1  0  0  0
 23 24  1  0  0  0
 24 25  1  0  0  0
 25 26  2  0  0  0
 26 27  1  0  0  0
 26 28  1  0  0  0
 28 29  2  0  0  0
 28 30  1  0  0  0
 30 31  1  0  0  0
 31 32  2  0  0  0
 19 14  1  0  0  0
 31 24  1  0  0  0
  2  5  1  0  0  0
  7  8  1  0  0  0
 10 11  1  0  0  0
 10 12  1  0  0  0
 30 33  1  0  0  0
M  END
> <minimizedAffinity>
-7.85786

> <CNNscore>
0.5443838835

> <CNNaffinity>
6.4448156357

> <CNN_VS>
3.5084538460

> <CNNaffinity_variance>
0.0903089643

$$$$
[H]Cl.[H]O[C@]([H])(C(=O)N([H])[C@]([H])(C(=O)OC([H])([H])n1c([H])c(F)c(=O)n([H])c1=O)C([H])([H])C([H])(C([H])([H])[H])C([H])([H])[H])[C@]([H])(N([H])[H])C([H])([H])c1c([H])c([H])c([H])c([H])c1[H]


 37 38  0  0  0  0  0  0  0  0999 V2000
  -88.4371   30.6838   -1.9181 C   0  0  0  0  0  0  0  0  0  0  0  0
  -88.9554   29.4645   -1.2852 N   0  0  0  0  0  0  0  0  0  0  0  0
  -88.8970   28.2043   -1.9408 C   0  0  0  0  0  0  0  0  0  0  0  0
  -88.3873   28.1620   -3.0831 O   0  0  0  0  0  0  0  0  0  0  0  0
  -89.3828   29.4865   -0.3337 H   0  0  0  0  0  0  0  0  0  0  0  0
  -89.4144   26.9603   -1.3188 C   0  0  0  0  0  0  0  0  0  0  0  0
  -89.3025   25.9154   -2.2257 O   0  0  0  0  0  0  0  0  0  0  0  0
  -88.4027   25.5181   -2.1606 H   0  0  0  0  0  0  0  0  0  0  0  0
  -88.6366   26.5895   -0.0638 C   0  0  0  0  0  0  0  0  0  0  0  0
  -87.4384   25.8724   -0.3658 N   0  0  0  0  0  0  0  0  0  0  0  0
  -86.6205   26.1421    0.2126 H   0  0  0  0  0  0  0  0  0  0  0  0
  -87.5362   24.8654   -0.5178 H   0  0  0  0  0  0  0  0  0  0  0  0
  -89.5625   25.7768    0.7996 C   0  0  0  0  0  0  0  0  0  0  0  0
  -89.8504   26.4028    2.1064 C   0  0  0  0  0  0  0  0  0  0  0  0
  -89.4731   25.8322    3.3107 C   0  0  0  0  0  0  0  0  0  0  0  0
  -89.7443   26.4218    4.5333 C   0  0  0  0  0  0  0  0  0  0  0  0
  -90.4085   27.6123    4.5728 C   0  0  0  0  0  0  0  0  0  0  0  0
  -90.8021   28.2151    3.4050 C   0  0  0  0  0  0  0  0  0  0  0  0
  -90.5282   27.6218    2.2004 C   0  0  0  0  0  0  0  0  0  0  0  0
  -87.7890   31.5344   -0.8897 C   0  0  0  0  0  0  0  0  0  0  0  0
  -88.0106   32.7939   -0.9669 O   0  0  0  0  0  0  0  0  0  0  0  0
  -86.9897   31.1405    0.1265 O   0  0  0  0  0  0  0  0  0  0  0  0
  -85.6261   31.0342    0.2500 C   0  0  0  0  0  0  0  0  0  0  0  0
  -85.1026   29.9208    0.9728 N   0  0  0  0  0  0  0  0  0  0  0  0
  -85.7297   28.7642    1.2317 C   0  0  0  0  0  0  0  0  0  0  0  0
  -85.1272   27.7374    1.9696 C   0  0  0  0  0  0  0  0  0  0  0  0
  -85.7785   26.5832    2.2161 F   0  0  0  0  0  0  0  0  0  0  0  0
  -83.8570   27.9039    2.4499 C   0  0  0  0  0  0  0  0  0  0  0  0
  -83.2268   27.0546    3.1179 O   0  0  0  0  0  0  0  0  0  0  0  0
  -83.2451   29.0820    2.1749 N   0  0  0  0  0  0  0  0  0  0  0  0
  -83.8454   30.0380    1.4705 C   0  0  0  0  0  0  0  0  0  0  0  0
  -83.1792   31.1111    1.2677 O   0  0  0  0  0  0  0  0  0  0  0  0
  -82.2635   29.2336    2.5357 H   0  0  0  0  0  0  0  0  0  0  0  0
  -89.4913   31.3484   -2.7279 C   0  0  0  0  0  0  0  0  0  0  0  0
  -89.6783   32.6529   -4.8552 C   0  0  0  0  0  0  0  0  0  0  0  0
  -89.1959   31.3589   -4.1907 C   0  0  0  0  0  0  0  0  0  0  0  0
  -87.6795   31.2256   -4.4215 C   0  0  0  0  0  0  0  0  0  0  0  0
 35 36  1  0  0  0
 36 37  1  0  0  0
 36 34  1  0  0  0
 34  1  1  0  0  0
  1  2  1  0  0  0
  2  3  1  0  0  0
  3  4  2  0  0  0
  3  6  1  0  0  0
  6  7  1  0  0  0
  6  9  1  0  0  0
  9 10  1  0  0  0
  9 13  1  0  0  0
 13 14  1  0  0  0
 14 15  2  0  0  0
 15 16  1  0  0  0
 16 17  2  0  0  0
 17 18  1  0  0  0
 18 19  2  0  0  0
  1 20  1  0  0  0
 20 21  2  0  0  0
 20 22  1  0  0  0
 22 23  1  0  0  0
 23 24  1  0  0  0
 24 25  1  0  0  0
 25 26  2  0  0  0
 26 27  1  0  0  0
 26 28  1  0  0  0
 28 29  2  0  0  0
 28 30  1  0  0  0
 30 31  1  0  0  0
 31 32  2  0  0  0
 19 14  1  0  0  0
 31 24  1  0  0  0
  2  5  1  0  0  0
  7  8  1  0  0  0
 10 11  1  0  0  0
 10 12  1  0  0  0
 30 33  1  0  0  0
M  END
> <minimizedAffinity>
-8.14836

> <CNNscore>
0.4631059468

> <CNNaffinity>
6.6566743851

> <CNN_VS>
3.0827455521

> <CNNaffinity_variance>
0.2724270225

$$$$
[H]Cl.[H]O[C@]([H])(C(=O)N([H])[C@]([H])(C(=O)OC([H])([H])n1c([H])c(F)c(=O)n([H])c1=O)C([H])([H])C([H])(C([H])([H])[H])C([H])([H])[H])[C@]([H])(N([H])[H])C([H])([H])c1c([H])c([H])c([H])c([H])c1[H]


 37 38  0  0  0  0  0  0  0  0999 V2000
  -88.4012   30.9657   -1.8509 C   0  0  0  0  0  0  0  0  0  0  0  0
  -89.1534   29.8936   -1.1870 N   0  0  0  0  0  0  0  0  0  0  0  0
  -88.6659   28.5588   -1.1462 C   0  0  0  0  0  0  0  0  0  0  0  0
  -87.5678   28.3198   -1.6972 O   0  0  0  0  0  0  0  0  0  0  0  0
  -90.0699   30.0798   -0.7245 H   0  0  0  0  0  0  0  0  0  0  0  0
  -89.4099   27.4611   -0.4802 C   0  0  0  0  0  0  0  0  0  0  0  0
  -90.6787   27.9099   -0.1403 O   0  0  0  0  0  0  0  0  0  0  0  0
  -91.2859   27.7926   -0.9079 H   0  0  0  0  0  0  0  0  0  0  0  0
  -89.5591   26.2474   -1.3868 C   0  0  0  0  0  0  0  0  0  0  0  0
  -88.3154   25.5761   -1.5961 N   0  0  0  0  0  0  0  0  0  0  0  0
  -88.3813   24.5408   -1.5910 H   0  0  0  0  0  0  0  0  0  0  0  0
  -87.7084   25.9586   -2.3255 H   0  0  0  0  0  0  0  0  0  0  0  0
  -90.1447   26.7392   -2.6823 C   0  0  0  0  0  0  0  0  0  0  0  0
  -91.3573   26.0044   -3.0972 C   0  0  0  0  0  0  0  0  0  0  0  0
  -92.2429   26.4924   -4.0437 C   0  0  0  0  0  0  0  0  0  0  0  0
  -93.3780   25.8010   -4.4303 C   0  0  0  0  0  0  0  0  0  0  0  0
  -93.6511   24.5892   -3.8672 C   0  0  0  0  0  0  0  0  0  0  0  0
  -92.8025   24.0658   -2.9251 C   0  0  0  0  0  0  0  0  0  0  0  0
  -91.6817   24.7595   -2.5502 C   0  0  0  0  0  0  0  0  0  0  0  0
  -87.6291   31.7254   -0.8371 C   0  0  0  0  0  0  0  0  0  0  0  0
  -87.7502   33.0006   -0.8636 O   0  0  0  0  0  0  0  0  0  0  0  0
  -86.8098   31.2338    0.1186 O   0  0  0  0  0  0  0  0  0  0  0  0
  -85.4544   31.0166    0.1604 C   0  0  0  0  0  0  0  0  0  0  0  0
  -84.9757   29.9065    0.9186 N   0  0  0  0  0  0  0  0  0  0  0  0
  -85.6375   28.7716    1.1871 C   0  0  0  0  0  0  0  0  0  0  0  0
  -85.0780   27.7465    1.9604 C   0  0  0  0  0  0  0  0  0  0  0  0
  -85.7637   26.6144    2.2159 F   0  0  0  0  0  0  0  0  0  0  0  0
  -83.8153   27.8920    2.4666 C   0  0  0  0  0  0  0  0  0  0  0  0
  -83.2222   27.0421    3.1670 O   0  0  0  0  0  0  0  0  0  0  0  0
  -83.1679   29.0484    2.1812 N   0  0  0  0  0  0  0  0  0  0  0  0
  -83.7276   30.0034    1.4429 C   0  0  0  0  0  0  0  0  0  0  0  0
  -83.0302   31.0551    1.2333 O   0  0  0  0  0  0  0  0  0  0  0  0
  -82.1912   29.1836    2.5617 H   0  0  0  0  0  0  0  0  0  0  0  0
  -89.2931   31.7785   -2.7184 C   0  0  0  0  0  0  0  0  0  0  0  0
  -88.4034   33.1130   -4.6394 C   0  0  0  0  0  0  0  0  0  0  0  0
  -88.9066   31.7472   -4.1595 C   0  0  0  0  0  0  0  0  0  0  0  0
  -87.7920   30.7087   -4.3822 C   0  0  0  0  0  0  0  0  0  0  0  0
 35 36  1  0  0  0
 36 37  1  0  0  0
 36 34  1  0  0  0
 34  1  1  0  0  0
  1  2  1  0  0  0
  2  3  1  0  0  0
  3  4  2  0  0  0
  3  6  1  0  0  0
  6  7  1  0  0  0
  6  9  1  0  0  0
  9 10  1  0  0  0
  9 13  1  0  0  0
 13 14  1  0  0  0
 14 15  2  0  0  0
 15 16  1  0  0  0
 16 17  2  0  0  0
 17 18  1  0  0  0
 18 19  2  0  0  0
  1 20  1  0  0  0
 20 21  2  0  0  0
 20 22  1  0  0  0
 22 23  1  0  0  0
 23 24  1  0  0  0
 24 25  1  0  0  0
 25 26  2  0  0  0
 26 27  1  0  0  0
 26 28  1  0  0  0
 28 29  2  0  0  0
 28 30  1  0  0  0
 30 31  1  0  0  0
 31 32  2  0  0  0
 19 14  1  0  0  0
 31 24  1  0  0  0
  2  5  1  0  0  0
  7  8  1  0  0  0
 10 11  1  0  0  0
 10 12  1  0  0  0
 30 33  1  0  0  0
M  END
> <minimizedAffinity>
-7.50557

> <CNNscore>
0.3977057040

> <CNNaffinity>
6.1360940933

> <CNN_VS>
2.4403595924

> <CNNaffinity_variance>
0.3890176415

$$$$
[H]Cl.[H]O[C@]([H])(C(=O)N([H])[C@]([H])(C(=O)OC([H])([H])n1c([H])c(F)c(=O)n([H])c1=O)C([H])([H])C([H])(C([H])([H])[H])C([H])([H])[H])[C@]([H])(N([H])[H])C([H])([H])c1c([H])c([H])c([H])c([H])c1[H]


 37 38  0  0  0  0  0  0  0  0999 V2000
  -89.2135   31.0585   -2.3647 C   0  0  0  0  0  0  0  0  0  0  0  0
  -89.9019   29.7765   -2.1691 N   0  0  0  0  0  0  0  0  0  0  0  0
  -89.3111   28.5469   -2.5695 C   0  0  0  0  0  0  0  0  0  0  0  0
  -88.1777   28.5872   -3.0987 O   0  0  0  0  0  0  0  0  0  0  0  0
  -90.8470   29.7295   -1.7296 H   0  0  0  0  0  0  0  0  0  0  0  0
  -89.9895   27.2407   -2.3804 C   0  0  0  0  0  0  0  0  0  0  0  0
  -89.9006   26.5056   -3.5545 O   0  0  0  0  0  0  0  0  0  0  0  0
  -89.0493   26.0086   -3.5679 H   0  0  0  0  0  0  0  0  0  0  0  0
  -89.3539   26.4302   -1.2595 C   0  0  0  0  0  0  0  0  0  0  0  0
  -88.6968   25.2594   -1.7482 N   0  0  0  0  0  0  0  0  0  0  0  0
  -87.7916   25.0518   -1.2858 H   0  0  0  0  0  0  0  0  0  0  0  0
  -89.2874   24.4400   -1.9108 H   0  0  0  0  0  0  0  0  0  0  0  0
  -90.4539   26.0824   -0.2941 C   0  0  0  0  0  0  0  0  0  0  0  0
  -90.2583   26.6560    1.0532 C   0  0  0  0  0  0  0  0  0  0  0  0
  -91.0458   27.6793    1.5542 C   0  0  0  0  0  0  0  0  0  0  0  0
  -90.8599   28.2141    2.8173 C   0  0  0  0  0  0  0  0  0  0  0  0
  -89.8665   27.7261    3.6142 C   0  0  0  0  0  0  0  0  0  0  0  0
  -89.0611   26.7126    3.1603 C   0  0  0  0  0  0  0  0  0  0  0  0
  -89.2546   26.1910    1.9079 C   0  0  0  0  0  0  0  0  0  0  0  0
  -88.7035   31.5471   -1.0600 C   0  0  0  0  0  0  0  0  0  0  0  0
  -89.3314   32.5318   -0.5330 O   0  0  0  0  0  0  0  0  0  0  0  0
  -87.6520   31.0763   -0.3535 O   0  0  0  0  0  0  0  0  0  0  0  0
  -86.4627   31.6433    0.0338 C   0  0  0  0  0  0  0  0  0  0  0  0
  -85.4801   30.7990    0.6321 N   0  0  0  0  0  0  0  0  0  0  0  0
  -85.6737   29.5701    1.1325 C   0  0  0  0  0  0  0  0  0  0  0  0
  -84.6377   28.8303    1.7166 C   0  0  0  0  0  0  0  0  0  0  0  0
  -84.8578   27.5962    2.2123 F   0  0  0  0  0  0  0  0  0  0  0  0
  -83.3803   29.3647    1.7874 C   0  0  0  0  0  0  0  0  0  0  0  0
  -82.3860   28.7927    2.2864 O   0  0  0  0  0  0  0  0  0  0  0  0
  -83.2109   30.6083    1.2749 N   0  0  0  0  0  0  0  0  0  0  0  0
  -84.2165   31.2852    0.7261 C   0  0  0  0  0  0  0  0  0  0  0  0
  -83.9487   32.4509    0.2725 O   0  0  0  0  0  0  0  0  0  0  0  0
  -82.2481   31.0419    1.3184 H   0  0  0  0  0  0  0  0  0  0  0  0
  -90.0732   32.0115   -3.1141 C   0  0  0  0  0  0  0  0  0  0  0  0
  -88.7557   33.9944   -3.8851 C   0  0  0  0  0  0  0  0  0  0  0  0
  -89.3807   32.6495   -4.2718 C   0  0  0  0  0  0  0  0  0  0  0  0
  -88.2665   31.7234   -4.7929 C   0  0  0  0  0  0  0  0  0  0  0  0
 35 36  1  0  0  0
 36 37  1  0  0  0
 36 34  1  0  0  0
 34  1  1  0  0  0
  1  2  1  0  0  0
  2  3  1  0  0  0
  3  4  2  0  0  0
  3  6  1  0  0  0
  6  7  1  0  0  0
  6  9  1  0  0  0
  9 10  1  0  0  0
  9 13  1  0  0  0
 13 14  1  0  0  0
 14 15  2  0  0  0
 15 16  1  0  0  0
 16 17  2  0  0  0
 17 18  1  0  0  0
 18 19  2  0  0  0
  1 20  1  0  0  0
 20 21  2  0  0  0
 20 22  1  0  0  0
 22 23  1  0  0  0
 23 24  1  0  0  0
 24 25  1  0  0  0
 25 26  2  0  0  0
 26 27  1  0  0  0
 26 28  1  0  0  0
 28 29  2  0  0  0
 28 30  1  0  0  0
 30 31  1  0  0  0
 31 32  2  0  0  0
 19 14  1  0  0  0
 31 24  1  0  0  0
  2  5  1  0  0  0
  7  8  1  0  0  0
 10 11  1  0  0  0
 10 12  1  0  0  0
 30 33  1  0  0  0
M  END
> <minimizedAffinity>
-7.71613

> <CNNscore>
0.3028198481

> <CNNaffinity>
6.2094812393

> <CNN_VS>
1.8803541660

> <CNNaffinity_variance>
0.4451749325

$$$$
[H]Cl.[H]O[C@]([H])(C(=O)N([H])[C@]([H])(C(=O)OC([H])([H])n1c([H])c(F)c(=O)n([H])c1=O)C([H])([H])C([H])(C([H])([H])[H])C([H])([H])[H])[C@]([H])(N([H])[H])C([H])([H])c1c([H])c([H])c([H])c([H])c1[H]


 37 38  0  0  0  0  0  0  0  0999 V2000
  -89.1162   26.1877    1.7614 C   0  0  0  0  0  0  0  0  0  0  0  0
  -89.4042   24.7733    1.4922 N   0  0  0  0  0  0  0  0  0  0  0  0
  -90.7011   24.3397    1.1034 C   0  0  0  0  0  0  0  0  0  0  0  0
  -91.5995   25.2044    0.9961 O   0  0  0  0  0  0  0  0  0  0  0  0
  -88.6642   24.0429    1.5784 H   0  0  0  0  0  0  0  0  0  0  0  0
  -91.0129   22.9156    0.8262 C   0  0  0  0  0  0  0  0  0  0  0  0
  -91.8121   22.4162    1.8454 O   0  0  0  0  0  0  0  0  0  0  0  0
  -92.7577   22.6130    1.6485 H   0  0  0  0  0  0  0  0  0  0  0  0
  -91.7562   22.7453   -0.4913 C   0  0  0  0  0  0  0  0  0  0  0  0
  -92.2048   21.4029   -0.6861 N   0  0  0  0  0  0  0  0  0  0  0  0
  -93.1535   21.3239   -1.0985 H   0  0  0  0  0  0  0  0  0  0  0  0
  -91.5207   20.7449   -1.0679 H   0  0  0  0  0  0  0  0  0  0  0  0
  -90.8147   23.1756   -1.5828 C   0  0  0  0  0  0  0  0  0  0  0  0
  -91.3250   24.3023   -2.3907 C   0  0  0  0  0  0  0  0  0  0  0  0
  -90.6834   25.5279   -2.4581 C   0  0  0  0  0  0  0  0  0  0  0  0
  -91.1643   26.5813   -3.2165 C   0  0  0  0  0  0  0  0  0  0  0  0
  -92.3144   26.4240   -3.9323 C   0  0  0  0  0  0  0  0  0  0  0  0
  -92.9845   25.2275   -3.8960 C   0  0  0  0  0  0  0  0  0  0  0  0
  -92.4989   24.1917   -3.1416 C   0  0  0  0  0  0  0  0  0  0  0  0
  -87.9907   26.6325    0.9032 C   0  0  0  0  0  0  0  0  0  0  0  0
  -87.8629   26.0393   -0.2252 O   0  0  0  0  0  0  0  0  0  0  0  0
  -87.0787   27.5944    1.1669 O   0  0  0  0  0  0  0  0  0  0  0  0
  -86.9912   28.9170    0.8076 C   0  0  0  0  0  0  0  0  0  0  0  0
  -85.7202   29.5574    0.9098 N   0  0  0  0  0  0  0  0  0  0  0  0
  -84.6118   29.0579    1.4755 C   0  0  0  0  0  0  0  0  0  0  0  0
  -83.4144   29.7819    1.5378 C   0  0  0  0  0  0  0  0  0  0  0  0
  -82.3132   29.2572    2.1116 F   0  0  0  0  0  0  0  0  0  0  0  0
  -83.3566   31.0423    1.0089 C   0  0  0  0  0  0  0  0  0  0  0  0
  -82.3419   31.7738    1.0104 O   0  0  0  0  0  0  0  0  0  0  0  0
  -84.4903   31.5244    0.4432 N   0  0  0  0  0  0  0  0  0  0  0  0
  -85.6125   30.8106    0.3999 C   0  0  0  0  0  0  0  0  0  0  0  0
  -86.6252   31.3594   -0.1566 O   0  0  0  0  0  0  0  0  0  0  0  0
  -84.4700   32.4960    0.0281 H   0  0  0  0  0  0  0  0  0  0  0  0
  -88.9434   26.4242    3.2184 C   0  0  0  0  0  0  0  0  0  0  0  0
  -90.0147   26.8705    5.4355 C   0  0  0  0  0  0  0  0  0  0  0  0
  -90.2201   26.7435    3.9220 C   0  0  0  0  0  0  0  0  0  0  0  0
  -90.7942   28.0705    3.3927 C   0  0  0  0  0  0  0  0  0  0  0  0
 35 36  1  0  0  0
 36 37  1  0  0  0
 36 34  1  0  0  0
 34  1  1  0  0  0
  1  2  1  0  0  0
  2  3  1  0  0  0
  3  4  2  0  0  0
  3  6  1  0  0  0
  6  7  1  0  0  0
  6  9  1  0  0  0
  9 10  1  0  0  0
  9 13  1  0  0  0
 13 14  1  0  0  0
 14 15  2  0  0  0
 15 16  1  0  0  0
 16 17  2  0  0  0
 17 18  1  0  0  0
 18 19  2  0  0  0
  1 20  1  0  0  0
 20 21  2  0  0  0
 20 22  1  0  0  0
 22 23  1  0  0  0
 23 24  1  0  0  0
 24 25  1  0  0  0
 25 26  2  0  0  0
 26 27  1  0  0  0
 26 28  1  0  0  0
 28 29  2  0  0  0
 28 30  1  0  0  0
 30 31  1  0  0  0
 31 32  2  0  0  0
 19 14  1  0  0  0
 31 24  1  0  0  0
  2  5  1  0  0  0
  7  8  1  0  0  0
 10 11  1  0  0  0
 10 12  1  0  0  0
 30 33  1  0  0  0
M  END
> <minimizedAffinity>
-7.58998

> <CNNscore>
0.2742060721

> <CNNaffinity>
6.0605888367

> <CNN_VS>
1.6618502140

> <CNNaffinity_variance>
0.0502834544

$$$$
[H]Cl.[H]O[C@]([H])(C(=O)N([H])[C@]([H])(C(=O)OC([H])([H])n1c([H])c(F)c(=O)n([H])c1=O)C([H])([H])C([H])(C([H])([H])[H])C([H])([H])[H])[C@]([H])(N([H])[H])C([H])([H])c1c([H])c([H])c([H])c([H])c1[H]


 37 38  0  0  0  0  0  0  0  0999 V2000
  -88.4759   29.9573   -1.1352 C   0  0  0  0  0  0  0  0  0  0  0  0
  -88.6796   30.9638   -2.1846 N   0  0  0  0  0  0  0  0  0  0  0  0
  -88.3113   30.7147   -3.5350 C   0  0  0  0  0  0  0  0  0  0  0  0
  -87.8034   29.6038   -3.8076 O   0  0  0  0  0  0  0  0  0  0  0  0
  -89.1015   31.8937   -1.9702 H   0  0  0  0  0  0  0  0  0  0  0  0
  -88.5090   31.7178   -4.6105 C   0  0  0  0  0  0  0  0  0  0  0  0
  -88.6895   31.0611   -5.8201 O   0  0  0  0  0  0  0  0  0  0  0  0
  -89.6408   30.8264   -5.9283 H   0  0  0  0  0  0  0  0  0  0  0  0
  -89.7299   32.5900   -4.3531 C   0  0  0  0  0  0  0  0  0  0  0  0
  -90.9477   31.8467   -4.4293 N   0  0  0  0  0  0  0  0  0  0  0  0
  -91.6491   32.0988   -3.7077 H   0  0  0  0  0  0  0  0  0  0  0  0
  -91.3354   31.7022   -5.3650 H   0  0  0  0  0  0  0  0  0  0  0  0
  -89.6965   33.6988   -5.3693 C   0  0  0  0  0  0  0  0  0  0  0  0
  -88.9167   34.8749   -4.9323 C   0  0  0  0  0  0  0  0  0  0  0  0
  -89.1175   35.4963   -3.7109 C   0  0  0  0  0  0  0  0  0  0  0  0
  -88.3846   36.5980   -3.3046 C   0  0  0  0  0  0  0  0  0  0  0  0
  -87.4221   37.1054   -4.1269 C   0  0  0  0  0  0  0  0  0  0  0  0
  -87.1878   36.5229   -5.3466 C   0  0  0  0  0  0  0  0  0  0  0  0
  -87.9198   35.4325   -5.7382 C   0  0  0  0  0  0  0  0  0  0  0  0
  -89.7631   29.2772   -0.8495 C   0  0  0  0  0  0  0  0  0  0  0  0
  -90.8243   29.9828   -0.9813 O   0  0  0  0  0  0  0  0  0  0  0  0
  -89.9548   27.9954   -0.4665 O   0  0  0  0  0  0  0  0  0  0  0  0
  -90.9426   27.3802    0.2628 C   0  0  0  0  0  0  0  0  0  0  0  0
  -90.7068   27.1495    1.6512 N   0  0  0  0  0  0  0  0  0  0  0  0
  -90.5560   28.0789    2.6059 C   0  0  0  0  0  0  0  0  0  0  0  0
  -90.3096   27.7422    3.9430 C   0  0  0  0  0  0  0  0  0  0  0  0
  -90.1622   28.6954    4.8846 F   0  0  0  0  0  0  0  0  0  0  0  0
  -90.2164   26.4259    4.3039 C   0  0  0  0  0  0  0  0  0  0  0  0
  -89.9999   26.0153    5.4654 O   0  0  0  0  0  0  0  0  0  0  0  0
  -90.3722   25.5060    3.3203 N   0  0  0  0  0  0  0  0  0  0  0  0
  -90.6056   25.8589    2.0587 C   0  0  0  0  0  0  0  0  0  0  0  0
  -90.7368   24.9120    1.2087 O   0  0  0  0  0  0  0  0  0  0  0  0
  -90.3041   24.4827    3.5750 H   0  0  0  0  0  0  0  0  0  0  0  0
  -87.7902   30.5518    0.0418 C   0  0  0  0  0  0  0  0  0  0  0  0
  -86.1139   28.8241   -0.6418 C   0  0  0  0  0  0  0  0  0  0  0  0
  -86.5522   29.8190    0.4384 C   0  0  0  0  0  0  0  0  0  0  0  0
  -85.4050   30.8174    0.6792 C   0  0  0  0  0  0  0  0  0  0  0  0
 35 36  1  0  0  0
 36 37  1  0  0  0
 36 34  1  0  0  0
 34  1  1  0  0  0
  1  2  1  0  0  0
  2  3  1  0  0  0
  3  4  2  0  0  0
  3  6  1  0  0  0
  6  7  1  0  0  0
  6  9  1  0  0  0
  9 10  1  0  0  0
  9 13  1  0  0  0
 13 14  1  0  0  0
 14 15  2  0  0  0
 15 16  1  0  0  0
 16 17  2  0  0  0
 17 18  1  0  0  0
 18 19  2  0  0  0
  1 20  1  0  0  0
 20 21  2  0  0  0
 20 22  1  0  0  0
 22 23  1  0  0  0
 23 24  1  0  0  0
 24 25  1  0  0  0
 25 26  2  0  0  0
 26 27  1  0  0  0
 26 28  1  0  0  0
 28 29  2  0  0  0
 28 30  1  0  0  0
 30 31  1  0  0  0
 31 32  2  0  0  0
 19 14  1  0  0  0
 31 24  1  0  0  0
  2  5  1  0  0  0
  7  8  1  0  0  0
 10 11  1  0  0  0
 10 12  1  0  0  0
 30 33  1  0  0  0
M  END
> <minimizedAffinity>
-7.36330

> <CNNscore>
0.2496952116

> <CNNaffinity>
5.8049368858

> <CNN_VS>
1.4494649172

> <CNNaffinity_variance>
0.3130515814

$$$$
[H]Cl.[H]O[C@]([H])(C(=O)N([H])[C@]([H])(C(=O)OC([H])([H])n1c([H])c(F)c(=O)n([H])c1=O)C([H])([H])C([H])(C([H])([H])[H])C([H])([H])[H])[C@]([H])(N([H])[H])C([H])([H])c1c([H])c([H])c([H])c([H])c1[H]


 37 38  0  0  0  0  0  0  0  0999 V2000
  -87.7025   32.3219   -2.3912 C   0  0  0  0  0  0  0  0  0  0  0  0
  -88.0020   30.9330   -2.0211 N   0  0  0  0  0  0  0  0  0  0  0  0
  -88.0072   29.8907   -2.9881 C   0  0  0  0  0  0  0  0  0  0  0  0
  -87.7474   30.1921   -4.1747 O   0  0  0  0  0  0  0  0  0  0  0  0
  -88.2204   30.6689   -1.0357 H   0  0  0  0  0  0  0  0  0  0  0  0
  -88.3066   28.4809   -2.6351 C   0  0  0  0  0  0  0  0  0  0  0  0
  -87.2834   27.9815   -1.8411 O   0  0  0  0  0  0  0  0  0  0  0  0
  -87.4595   28.2061   -0.8975 H   0  0  0  0  0  0  0  0  0  0  0  0
  -89.6138   28.3558   -1.8650 C   0  0  0  0  0  0  0  0  0  0  0  0
  -89.4313   28.5470   -0.4609 N   0  0  0  0  0  0  0  0  0  0  0  0
  -90.1799   29.1003   -0.0032 H   0  0  0  0  0  0  0  0  0  0  0  0
  -89.1202   27.7316    0.0731 H   0  0  0  0  0  0  0  0  0  0  0  0
  -90.1703   26.9913   -2.1677 C   0  0  0  0  0  0  0  0  0  0  0  0
  -91.5292   27.0245   -2.7462 C   0  0  0  0  0  0  0  0  0  0  0  0
  -92.5325   27.8449   -2.2575 C   0  0  0  0  0  0  0  0  0  0  0  0
  -93.8046   27.8737   -2.8023 C   0  0  0  0  0  0  0  0  0  0  0  0
  -94.0999   27.0687   -3.8629 C   0  0  0  0  0  0  0  0  0  0  0  0
  -93.1379   26.2391   -4.3807 C   0  0  0  0  0  0  0  0  0  0  0  0
  -91.8819   26.2192   -3.8330 C   0  0  0  0  0  0  0  0  0  0  0  0
  -86.4639   32.7586   -1.7011 C   0  0  0  0  0  0  0  0  0  0  0  0
  -86.1139   33.9792   -1.8722 O   0  0  0  0  0  0  0  0  0  0  0  0
  -85.6552   32.0223   -0.9072 O   0  0  0  0  0  0  0  0  0  0  0  0
  -85.5213   31.9323    0.4566 C   0  0  0  0  0  0  0  0  0  0  0  0
  -85.0678   30.6959    1.0062 N   0  0  0  0  0  0  0  0  0  0  0  0
  -83.8369   30.4229    1.4628 C   0  0  0  0  0  0  0  0  0  0  0  0
  -83.4909   29.1635    1.9687 C   0  0  0  0  0  0  0  0  0  0  0  0
  -82.2463   28.9140    2.4225 F   0  0  0  0  0  0  0  0  0  0  0  0
  -84.4279   28.1673    2.0051 C   0  0  0  0  0  0  0  0  0  0  0  0
  -84.2265   27.0101    2.4350 O   0  0  0  0  0  0  0  0  0  0  0  0
  -85.6642   28.4686    1.5374 N   0  0  0  0  0  0  0  0  0  0  0  0
  -85.9612   29.6758    1.0631 C   0  0  0  0  0  0  0  0  0  0  0  0
  -87.1573   29.8547    0.6465 O   0  0  0  0  0  0  0  0  0  0  0  0
  -86.4047   27.7149    1.5552 H   0  0  0  0  0  0  0  0  0  0  0  0
  -88.8904   33.1915   -2.1870 C   0  0  0  0  0  0  0  0  0  0  0  0
  -88.9109   35.4182   -3.3286 C   0  0  0  0  0  0  0  0  0  0  0  0
  -89.2963   33.9374   -3.4142 C   0  0  0  0  0  0  0  0  0  0  0  0
  -88.6144   33.3245   -4.6511 C   0  0  0  0  0  0  0  0  0  0  0  0
 35 36  1  0  0  0
 36 37  1  0  0  0
 36 34  1  0  0  0
 34  1  1  0  0  0
  1  2  1  0  0  0
  2  3  1  0  0  0
  3  4  2  0  0  0
  3  6  1  0  0  0
  6  7  1  0  0  0
  6  9  1  0  0  0
  9 10  1  0  0  0
  9 13  1  0  0  0
 13 14  1  0  0  0
 14 15  2  0  0  0
 15 16  1  0  0  0
 16 17  2  0  0  0
 17 18  1  0  0  0
 18 19  2  0  0  0
  1 20  1  0  0  0
 20 21  2  0  0  0
 20 22  1  0  0  0
 22 23  1  0  0  0
 23 24  1  0  0  0
 24 25  1  0  0  0
 25 26  2  0  0  0
 26 27  1  0  0  0
 26 28  1  0  0  0
 28 29  2  0  0  0
 28 30  1  0  0  0
 30 31  1  0  0  0
 31 32  2  0  0  0
 19 14  1  0  0  0
 31 24  1  0  0  0
  2  5  1  0  0  0
  7  8  1  0  0  0
 10 11  1  0  0  0
 10 12  1  0  0  0
 30 33  1  0  0  0
M  END
> <minimizedAffinity>
-7.18125

> <CNNscore>
0.2217570245

> <CNNaffinity>
6.0637927055

> <CNN_VS>
1.3446886539

> <CNNaffinity_variance>
0.1404409707

$$$$
