[H]c1nc(N([H])c2c([H])c([H])c(N3C([H])([H])C([H])([H])C([H])(N4C([H])([H])C([H])([H])N(C([H])([H])[H])C([H])([H])C4([H])[H])C([H])([H])C3([H])[H])c([H])c2OC([H])([H])[H])nc(N([H])c2c([H])c([H])c([H])c([H])c2S(=O)(=O)C([H])(C([H])([H])[H])C([H])([H])[H])c1Cl


 44 48  0  0  0  0  0  0  0  0999 V2000
  -86.1661   33.9426   -3.2243 N   0  0  0  0  0  0  0  0  0  0  0  0
  -85.4111   34.6146   -3.6111 H   0  0  0  0  0  0  0  0  0  0  0  0
  -85.8285   33.2385   -2.0383 C   0  0  0  0  0  0  0  0  0  0  0  0
  -84.7163   33.3967   -1.3163 N   0  0  0  0  0  0  0  0  0  0  0  0
  -84.4607   32.6982   -0.2031 C   0  0  0  0  0  0  0  0  0  0  0  0
  -85.3675   31.7659    0.2438 C   0  0  0  0  0  0  0  0  0  0  0  0
  -85.0486   30.8379    1.7060 Cl  0  0  0  0  0  0  0  0  0  0  0  0
  -86.5505   31.5794   -0.5008 C   0  0  0  0  0  0  0  0  0  0  0  0
  -86.7132   32.3241   -1.5962 N   0  0  0  0  0  0  0  0  0  0  0  0
  -87.4599   30.6237   -0.0222 N   0  0  0  0  0  0  0  0  0  0  0  0
  -87.1126   30.0677    0.8270 H   0  0  0  0  0  0  0  0  0  0  0  0
  -88.7451   30.2625   -0.4537 C   0  0  0  0  0  0  0  0  0  0  0  0
  -89.5482   31.1906   -1.0822 C   0  0  0  0  0  0  0  0  0  0  0  0
  -90.8344   30.8460   -1.5173 C   0  0  0  0  0  0  0  0  0  0  0  0
  -91.2851   29.5768   -1.3111 C   0  0  0  0  0  0  0  0  0  0  0  0
  -90.4809   28.6524   -0.6835 C   0  0  0  0  0  0  0  0  0  0  0  0
  -89.2191   28.9621   -0.2480 C   0  0  0  0  0  0  0  0  0  0  0  0
  -88.2294   27.7987    0.5312 S   0  0  0  0  0  0  0  0  0  0  0  0
  -87.6734   28.3719    1.8104 O   0  0  0  0  0  0  0  0  0  0  0  0
  -87.0730   27.3053   -0.2927 O   0  0  0  0  0  0  0  0  0  0  0  0
  -89.1366   26.3407    1.0103 C   0  0  0  0  0  0  0  0  0  0  0  0
  -88.8801   25.2177    0.0586 C   0  0  0  0  0  0  0  0  0  0  0  0
  -88.9942   26.0001    2.4563 C   0  0  0  0  0  0  0  0  0  0  0  0
  -87.6768   35.0035   -4.7620 C   0  0  0  0  0  0  0  0  0  0  0  0
  -88.8286   35.0303   -5.5268 C   0  0  0  0  0  0  0  0  0  0  0  0
  -89.7098   33.9723   -5.5505 C   0  0  0  0  0  0  0  0  0  0  0  0
  -89.3805   32.8892   -4.7722 C   0  0  0  0  0  0  0  0  0  0  0  0
  -88.2247   32.8295   -3.9874 C   0  0  0  0  0  0  0  0  0  0  0  0
  -87.3504   33.8870   -3.9678 C   0  0  0  0  0  0  0  0  0  0  0  0
  -90.8933   34.0118   -6.3524 N   0  0  0  0  0  0  0  0  0  0  0  0
  -90.7790   34.4331   -7.7065 C   0  0  0  0  0  0  0  0  0  0  0  0
  -91.9533   34.1266   -8.5931 C   0  0  0  0  0  0  0  0  0  0  0  0
  -93.2827   34.3788   -7.9652 C   0  0  0  0  0  0  0  0  0  0  0  0
  -93.2076   34.5264   -6.4586 C   0  0  0  0  0  0  0  0  0  0  0  0
  -92.1857   33.6443   -5.8255 C   0  0  0  0  0  0  0  0  0  0  0  0
  -94.3336   33.4992   -8.2900 N   0  0  0  0  0  0  0  0  0  0  0  0
  -94.2829   32.7753   -9.4911 C   0  0  0  0  0  0  0  0  0  0  0  0
  -95.6693   32.2068   -9.8068 C   0  0  0  0  0  0  0  0  0  0  0  0
  -96.2060   31.6453   -8.5824 N   0  0  0  0  0  0  0  0  0  0  0  0
  -95.5633   30.4429   -8.1574 C   0  0  0  0  0  0  0  0  0  0  0  0
  -96.4297   32.6201   -7.5641 C   0  0  0  0  0  0  0  0  0  0  0  0
  -95.6540   33.8890   -7.9115 C   0  0  0  0  0  0  0  0  0  0  0  0
  -86.9450   37.0261   -5.8442 C   0  0  0  0  0  0  0  0  0  0  0  0
  -86.8334   36.1035   -4.7848 O   0  0  0  0  0  0  0  0  0  0  0  0
 43 44  1  0  0  0
 44 24  1  0  0  0
 24 25  2  0  0  0
 25 26  1  0  0  0
 26 27  2  0  0  0
 27 28  1  0  0  0
 28 29  2  0  0  0
 29  1  1  0  0  0
  1  3  1  0  0  0
  3  4  2  0  0  0
  4  5  1  0  0  0
  5  6  2  0  0  0
  6  7  1  0  0  0
  6  8  1  0  0  0
  8 10  1  0  0  0
 10 12  1  0  0  0
 12 13  2  0  0  0
 13 14  1  0  0  0
 14 15  2  0  0  0
 15 16  1  0  0  0
 16 17  2  0  0  0
 17 18  1  0  0  0
 18 19  2  0  0  0
 18 20  2  0  0  0
 18 21  1  0  0  0
 21 22  1  0  0  0
 21 23  1  0  0  0
  8  9  2  0  0  0
 26 30  1  0  0  0
 30 31  1  0  0  0
 31 32  1  0  0  0
 32 33  1  0  0  0
 33 34  1  0  0  0
 34 35  1  0  0  0
 33 36  1  0  0  0
 36 37  1  0  0  0
 37 38  1  0  0  0
 38 39  1  0  0  0
 39 40  1  0  0  0
 39 41  1  0  0  0
 41 42  1  0  0  0
 29 24  1  0  0  0
  9  3  1  0  0  0
 35 30  1  0  0  0
 42 36  1  0  0  0
 17 12  1  0  0  0
  1  2  1  0  0  0
 10 11  1  0  0  0
M  END
> <minimizedAffinity>
-7.74013

> <CNNscore>
0.5407050848

> <CNNaffinity>
7.5301270485

> <CNN_VS>
4.0715780258

> <CNNaffinity_variance>
0.0314048454

$$$$
[H]c1nc(N([H])c2c([H])c([H])c(N3C([H])([H])C([H])([H])C([H])(N4C([H])([H])C([H])([H])N(C([H])([H])[H])C([H])([H])C4([H])[H])C([H])([H])C3([H])[H])c([H])c2OC([H])([H])[H])nc(N([H])c2c([H])c([H])c([H])c([H])c2S(=O)(=O)C([H])(C([H])([H])[H])C([H])([H])[H])c1Cl


 44 48  0  0  0  0  0  0  0  0999 V2000
  -90.1460   32.5870   -2.2239 N   0  0  0  0  0  0  0  0  0  0  0  0
  -90.8282   33.3579   -1.8898 H   0  0  0  0  0  0  0  0  0  0  0  0
  -88.7654   32.8350   -2.0029 C   0  0  0  0  0  0  0  0  0  0  0  0
  -88.0954   33.9356   -2.3535 N   0  0  0  0  0  0  0  0  0  0  0  0
  -86.7894   34.1053   -2.1125 C   0  0  0  0  0  0  0  0  0  0  0  0
  -86.0764   33.1172   -1.4751 C   0  0  0  0  0  0  0  0  0  0  0  0
  -84.3581   33.3229   -1.1495 Cl  0  0  0  0  0  0  0  0  0  0  0  0
  -86.7607   31.9444   -1.0942 C   0  0  0  0  0  0  0  0  0  0  0  0
  -88.0624   31.8703   -1.3789 N   0  0  0  0  0  0  0  0  0  0  0  0
  -86.0106   30.9526   -0.4437 N   0  0  0  0  0  0  0  0  0  0  0  0
  -85.0133   31.2504   -0.1836 H   0  0  0  0  0  0  0  0  0  0  0  0
  -86.3293   29.6384   -0.0701 C   0  0  0  0  0  0  0  0  0  0  0  0
  -87.0577   28.8361   -0.9228 C   0  0  0  0  0  0  0  0  0  0  0  0
  -87.3855   27.5223   -0.5637 C   0  0  0  0  0  0  0  0  0  0  0  0
  -86.9743   27.0440    0.6442 C   0  0  0  0  0  0  0  0  0  0  0  0
  -86.2471   27.8473    1.4932 C   0  0  0  0  0  0  0  0  0  0  0  0
  -85.9125   29.1357    1.1674 C   0  0  0  0  0  0  0  0  0  0  0  0
  -85.0051   30.1231    2.2359 S   0  0  0  0  0  0  0  0  0  0  0  0
  -85.2615   29.7065    3.6624 O   0  0  0  0  0  0  0  0  0  0  0  0
  -85.2925   31.5946    2.1277 O   0  0  0  0  0  0  0  0  0  0  0  0
  -83.2468   29.9563    1.9935 C   0  0  0  0  0  0  0  0  0  0  0  0
  -82.8132   28.5413    2.1999 C   0  0  0  0  0  0  0  0  0  0  0  0
  -82.7554   30.6004    0.7403 C   0  0  0  0  0  0  0  0  0  0  0  0
  -91.0181   30.3596   -1.9998 C   0  0  0  0  0  0  0  0  0  0  0  0
  -91.6133   29.2196   -2.5081 C   0  0  0  0  0  0  0  0  0  0  0  0
  -91.9730   29.1171   -3.8334 C   0  0  0  0  0  0  0  0  0  0  0  0
  -91.7077   30.2103   -4.6218 C   0  0  0  0  0  0  0  0  0  0  0  0
  -91.1072   31.3778   -4.1403 C   0  0  0  0  0  0  0  0  0  0  0  0
  -90.7509   31.4741   -2.8186 C   0  0  0  0  0  0  0  0  0  0  0  0
  -92.5947   27.9341   -4.3429 N   0  0  0  0  0  0  0  0  0  0  0  0
  -92.1519   26.6733   -3.8543 C   0  0  0  0  0  0  0  0  0  0  0  0
  -93.0509   25.5034   -4.1405 C   0  0  0  0  0  0  0  0  0  0  0  0
  -93.6134   25.4812   -5.5219 C   0  0  0  0  0  0  0  0  0  0  0  0
  -93.4841   26.8121   -6.2354 C   0  0  0  0  0  0  0  0  0  0  0  0
  -93.6436   27.9881   -5.3328 C   0  0  0  0  0  0  0  0  0  0  0  0
  -94.9267   24.9982   -5.6825 N   0  0  0  0  0  0  0  0  0  0  0  0
  -95.3154   23.8209   -5.0251 C   0  0  0  0  0  0  0  0  0  0  0  0
  -96.6147   23.2941   -5.6410 C   0  0  0  0  0  0  0  0  0  0  0  0
  -97.5109   24.4209   -5.8131 N   0  0  0  0  0  0  0  0  0  0  0  0
  -98.0380   24.9429   -4.5929 C   0  0  0  0  0  0  0  0  0  0  0  0
  -97.0280   25.3902   -6.7428 C   0  0  0  0  0  0  0  0  0  0  0  0
  -95.5336   25.1657   -6.9640 C   0  0  0  0  0  0  0  0  0  0  0  0
  -90.7344   29.2022    0.0925 C   0  0  0  0  0  0  0  0  0  0  0  0
  -90.6816   30.3955   -0.6554 O   0  0  0  0  0  0  0  0  0  0  0  0
 43 44  1  0  0  0
 44 24  1  0  0  0
 24 25  2  0  0  0
 25 26  1  0  0  0
 26 27  2  0  0  0
 27 28  1  0  0  0
 28 29  2  0  0  0
 29  1  1  0  0  0
  1  3  1  0  0  0
  3  4  2  0  0  0
  4  5  1  0  0  0
  5  6  2  0  0  0
  6  7  1  0  0  0
  6  8  1  0  0  0
  8 10  1  0  0  0
 10 12  1  0  0  0
 12 13  2  0  0  0
 13 14  1  0  0  0
 14 15  2  0  0  0
 15 16  1  0  0  0
 16 17  2  0  0  0
 17 18  1  0  0  0
 18 19  2  0  0  0
 18 20  2  0  0  0
 18 21  1  0  0  0
 21 22  1  0  0  0
 21 23  1  0  0  0
  8  9  2  0  0  0
 26 30  1  0  0  0
 30 31  1  0  0  0
 31 32  1  0  0  0
 32 33  1  0  0  0
 33 34  1  0  0  0
 34 35  1  0  0  0
 33 36  1  0  0  0
 36 37  1  0  0  0
 37 38  1  0  0  0
 38 39  1  0  0  0
 39 40  1  0  0  0
 39 41  1  0  0  0
 41 42  1  0  0  0
 29 24  1  0  0  0
  9  3  1  0  0  0
 35 30  1  0  0  0
 42 36  1  0  0  0
 17 12  1  0  0  0
  1  2  1  0  0  0
 10 11  1  0  0  0
M  END
> <minimizedAffinity>
-8.62490

> <CNNscore>
0.2618317008

> <CNNaffinity>
6.7785630226

> <CNN_VS>
1.7748427391

> <CNNaffinity_variance>
0.7536109686

$$$$
[H]c1nc(N([H])c2c([H])c([H])c(N3C([H])([H])C([H])([H])C([H])(N4C([H])([H])C([H])([H])N(C([H])([H])[H])C([H])([H])C4([H])[H])C([H])([H])C3([H])[H])c([H])c2OC([H])([H])[H])nc(N([H])c2c([H])c([H])c([H])c([H])c2S(=O)(=O)C([H])(C([H])([H])[H])C([H])([H])[H])c1Cl


 44 48  0  0  0  0  0  0  0  0999 V2000
  -86.3263   33.3929   -0.6696 N   0  0  0  0  0  0  0  0  0  0  0  0
  -86.0650   34.3183   -0.1731 H   0  0  0  0  0  0  0  0  0  0  0  0
  -85.7849   32.2068   -0.1071 C   0  0  0  0  0  0  0  0  0  0  0  0
  -84.5516   32.0575    0.3828 N   0  0  0  0  0  0  0  0  0  0  0  0
  -84.1045   30.9072    0.9019 C   0  0  0  0  0  0  0  0  0  0  0  0
  -84.9310   29.8090    0.9469 C   0  0  0  0  0  0  0  0  0  0  0  0
  -84.3604   28.2879    1.6261 Cl  0  0  0  0  0  0  0  0  0  0  0  0
  -86.2388   29.9403    0.4358 C   0  0  0  0  0  0  0  0  0  0  0  0
  -86.5902   31.1282   -0.0606 N   0  0  0  0  0  0  0  0  0  0  0  0
  -87.0624   28.8056    0.4953 N   0  0  0  0  0  0  0  0  0  0  0  0
  -87.0096   28.2679    1.4222 H   0  0  0  0  0  0  0  0  0  0  0  0
  -87.9454   28.2451   -0.4399 C   0  0  0  0  0  0  0  0  0  0  0  0
  -87.9354   28.6836   -1.7471 C   0  0  0  0  0  0  0  0  0  0  0  0
  -88.8119   28.1354   -2.6924 C   0  0  0  0  0  0  0  0  0  0  0  0
  -89.6790   27.1590   -2.3031 C   0  0  0  0  0  0  0  0  0  0  0  0
  -89.6865   26.7232   -0.9974 C   0  0  0  0  0  0  0  0  0  0  0  0
  -88.8403   27.2417   -0.0523 C   0  0  0  0  0  0  0  0  0  0  0  0
  -88.8613   26.6871    1.5700 S   0  0  0  0  0  0  0  0  0  0  0  0
  -87.4501   26.5473    2.0831 O   0  0  0  0  0  0  0  0  0  0  0  0
  -89.5575   25.3707    1.7745 O   0  0  0  0  0  0  0  0  0  0  0  0
  -89.6644   27.8338    2.6739 C   0  0  0  0  0  0  0  0  0  0  0  0
  -90.9056   28.3885    2.0539 C   0  0  0  0  0  0  0  0  0  0  0  0
  -89.8205   27.3116    4.0631 C   0  0  0  0  0  0  0  0  0  0  0  0
  -88.5193   33.2025   -1.6322 C   0  0  0  0  0  0  0  0  0  0  0  0
  -89.4091   33.3105   -2.6852 C   0  0  0  0  0  0  0  0  0  0  0  0
  -89.0116   33.7425   -3.9309 C   0  0  0  0  0  0  0  0  0  0  0  0
  -87.6822   34.0602   -4.0687 C   0  0  0  0  0  0  0  0  0  0  0  0
  -86.7563   33.9623   -3.0254 C   0  0  0  0  0  0  0  0  0  0  0  0
  -87.1583   33.5311   -1.7862 C   0  0  0  0  0  0  0  0  0  0  0  0
  -89.9452   33.8561   -5.0084 N   0  0  0  0  0  0  0  0  0  0  0  0
  -90.8577   32.7869   -5.2282 C   0  0  0  0  0  0  0  0  0  0  0  0
  -92.0277   33.0925   -6.1207 C   0  0  0  0  0  0  0  0  0  0  0  0
  -91.6858   33.8883   -7.3352 C   0  0  0  0  0  0  0  0  0  0  0  0
  -90.3256   34.5508   -7.2455 C   0  0  0  0  0  0  0  0  0  0  0  0
  -89.9793   35.0129   -5.8708 C   0  0  0  0  0  0  0  0  0  0  0  0
  -92.6298   34.8334   -7.7815 N   0  0  0  0  0  0  0  0  0  0  0  0
  -93.6185   35.2931   -6.8980 C   0  0  0  0  0  0  0  0  0  0  0  0
  -94.7306   35.9881   -7.6886 C   0  0  0  0  0  0  0  0  0  0  0  0
  -94.1021   36.8512   -8.6698 N   0  0  0  0  0  0  0  0  0  0  0  0
  -93.4679   38.0045   -8.1159 C   0  0  0  0  0  0  0  0  0  0  0  0
  -93.3446   36.1382   -9.6470 C   0  0  0  0  0  0  0  0  0  0  0  0
  -93.0756   34.7251   -9.1336 C   0  0  0  0  0  0  0  0  0  0  0  0
  -89.8433   31.6421   -0.3634 C   0  0  0  0  0  0  0  0  0  0  0  0
  -88.9871   32.7608   -0.4043 O   0  0  0  0  0  0  0  0  0  0  0  0
 43 44  1  0  0  0
 44 24  1  0  0  0
 24 25  2  0  0  0
 25 26  1  0  0  0
 26 27  2  0  0  0
 27 28  1  0  0  0
 28 29  2  0  0  0
 29  1  1  0  0  0
  1  3  1  0  0  0
  3  4  2  0  0  0
  4  5  1  0  0  0
  5  6  2  0  0  0
  6  7  1  0  0  0
  6  8  1  0  0  0
  8 10  1  0  0  0
 10 12  1  0  0  0
 12 13  2  0  0  0
 13 14  1  0  0  0
 14 15  2  0  0  0
 15 16  1  0  0  0
 16 17  2  0  0  0
 17 18  1  0  0  0
 18 19  2  0  0  0
 18 20  2  0  0  0
 18 21  1  0  0  0
 21 22  1  0  0  0
 21 23  1  0  0  0
  8  9  2  0  0  0
 26 30  1  0  0  0
 30 31  1  0  0  0
 31 32  1  0  0  0
 32 33  1  0  0  0
 33 34  1  0  0  0
 34 35  1  0  0  0
 33 36  1  0  0  0
 36 37  1  0  0  0
 37 38  1  0  0  0
 38 39  1  0  0  0
 39 40  1  0  0  0
 39 41  1  0  0  0
 41 42  1  0  0  0
 29 24  1  0  0  0
  9  3  1  0  0  0
 35 30  1  0  0  0
 42 36  1  0  0  0
 17 12  1  0  0  0
  1  2  1  0  0  0
 10 11  1  0  0  0
M  END
> <minimizedAffinity>
-7.78827

> <CNNscore>
0.1956047118

> <CNNaffinity>
7.1831932068

> <CNN_VS>
1.4050664902

> <CNNaffinity_variance>
0.1622948945

$$$$
[H]c1nc(N([H])c2c([H])c([H])c(N3C([H])([H])C([H])([H])C([H])(N4C([H])([H])C([H])([H])N(C([H])([H])[H])C([H])([H])C4([H])[H])C([H])([H])C3([H])[H])c([H])c2OC([H])([H])[H])nc(N([H])c2c([H])c([H])c([H])c([H])c2S(=O)(=O)C([H])(C([H])([H])[H])C([H])([H])[H])c1Cl


 44 48  0  0  0  0  0  0  0  0999 V2000
  -87.0108   32.6654   -0.7692 N   0  0  0  0  0  0  0  0  0  0  0  0
  -86.5994   33.6558   -0.6246 H   0  0  0  0  0  0  0  0  0  0  0  0
  -86.3944   31.6185   -0.0339 C   0  0  0  0  0  0  0  0  0  0  0  0
  -85.2436   31.6984    0.6387 N   0  0  0  0  0  0  0  0  0  0  0  0
  -84.7179   30.6691    1.3145 C   0  0  0  0  0  0  0  0  0  0  0  0
  -85.3706   29.4588    1.3359 C   0  0  0  0  0  0  0  0  0  0  0  0
  -84.6945   28.0940    2.2196 Cl  0  0  0  0  0  0  0  0  0  0  0  0
  -86.5883   29.3481    0.6333 C   0  0  0  0  0  0  0  0  0  0  0  0
  -87.0295   30.4310   -0.0098 N   0  0  0  0  0  0  0  0  0  0  0  0
  -87.2350   28.1033    0.6727 N   0  0  0  0  0  0  0  0  0  0  0  0
  -86.8861   27.4469    1.4463 H   0  0  0  0  0  0  0  0  0  0  0  0
  -88.2585   27.5596   -0.1181 C   0  0  0  0  0  0  0  0  0  0  0  0
  -88.3042   27.8306   -1.4693 C   0  0  0  0  0  0  0  0  0  0  0  0
  -89.3206   27.2970   -2.2721 C   0  0  0  0  0  0  0  0  0  0  0  0
  -90.2684   26.5031   -1.6994 C   0  0  0  0  0  0  0  0  0  0  0  0
  -90.2200   26.2342   -0.3502 C   0  0  0  0  0  0  0  0  0  0  0  0
  -89.2374   26.7427    0.4583 C   0  0  0  0  0  0  0  0  0  0  0  0
  -89.1905   26.3973    2.1372 S   0  0  0  0  0  0  0  0  0  0  0  0
  -87.7613   26.2224    2.5855 O   0  0  0  0  0  0  0  0  0  0  0  0
  -89.9547   25.1695    2.5471 O   0  0  0  0  0  0  0  0  0  0  0  0
  -89.8472   27.7267    3.1270 C   0  0  0  0  0  0  0  0  0  0  0  0
  -90.9114   28.4674    2.3844 C   0  0  0  0  0  0  0  0  0  0  0  0
  -90.2044   27.3137    4.5158 C   0  0  0  0  0  0  0  0  0  0  0  0
  -88.0830   33.4713   -2.7625 C   0  0  0  0  0  0  0  0  0  0  0  0
  -89.1073   33.4643   -3.6915 C   0  0  0  0  0  0  0  0  0  0  0  0
  -90.1761   32.6021   -3.5882 C   0  0  0  0  0  0  0  0  0  0  0  0
  -90.1676   31.7495   -2.5111 C   0  0  0  0  0  0  0  0  0  0  0  0
  -89.1484   31.7305   -1.5538 C   0  0  0  0  0  0  0  0  0  0  0  0
  -88.0859   32.5921   -1.6620 C   0  0  0  0  0  0  0  0  0  0  0  0
  -91.2243   32.6017   -4.5611 N   0  0  0  0  0  0  0  0  0  0  0  0
  -91.8302   31.3603   -4.9020 C   0  0  0  0  0  0  0  0  0  0  0  0
  -93.1349   31.4457   -5.6431 C   0  0  0  0  0  0  0  0  0  0  0  0
  -93.1668   32.4784   -6.7190 C   0  0  0  0  0  0  0  0  0  0  0  0
  -92.0377   33.4834   -6.6087 C   0  0  0  0  0  0  0  0  0  0  0  0
  -91.6726   33.8149   -5.2016 C   0  0  0  0  0  0  0  0  0  0  0  0
  -94.3780   33.1671   -6.9249 N   0  0  0  0  0  0  0  0  0  0  0  0
  -94.3917   34.3156   -7.7311 C   0  0  0  0  0  0  0  0  0  0  0  0
  -95.6905   35.0920   -7.4965 C   0  0  0  0  0  0  0  0  0  0  0  0
  -96.7809   34.1363   -7.4857 N   0  0  0  0  0  0  0  0  0  0  0  0
  -97.0833   33.5769   -8.7643 C   0  0  0  0  0  0  0  0  0  0  0  0
  -96.7065   33.2061   -6.4057 C   0  0  0  0  0  0  0  0  0  0  0  0
  -95.2922   33.2252   -5.8297 C   0  0  0  0  0  0  0  0  0  0  0  0
  -87.1617   35.3912   -3.8861 C   0  0  0  0  0  0  0  0  0  0  0  0
  -87.0370   34.3659   -2.9273 O   0  0  0  0  0  0  0  0  0  0  0  0
 43 44  1  0  0  0
 44 24  1  0  0  0
 24 25  2  0  0  0
 25 26  1  0  0  0
 26 27  2  0  0  0
 27 28  1  0  0  0
 28 29  2  0  0  0
 29  1  1  0  0  0
  1  3  1  0  0  0
  3  4  2  0  0  0
  4  5  1  0  0  0
  5  6  2  0  0  0
  6  7  1  0  0  0
  6  8  1  0  0  0
  8 10  1  0  0  0
 10 12  1  0  0  0
 12 13  2  0  0  0
 13 14  1  0  0  0
 14 15  2  0  0  0
 15 16  1  0  0  0
 16 17  2  0  0  0
 17 18  1  0  0  0
 18 19  2  0  0  0
 18 20  2  0  0  0
 18 21  1  0  0  0
 21 22  1  0  0  0
 21 23  1  0  0  0
  8  9  2  0  0  0
 26 30  1  0  0  0
 30 31  1  0  0  0
 31 32  1  0  0  0
 32 33  1  0  0  0
 33 34  1  0  0  0
 34 35  1  0  0  0
 33 36  1  0  0  0
 36 37  1  0  0  0
 37 38  1  0  0  0
 38 39  1  0  0  0
 39 40  1  0  0  0
 39 41  1  0  0  0
 41 42  1  0  0  0
 29 24  1  0  0  0
  9  3  1  0  0  0
 35 30  1  0  0  0
 42 36  1  0  0  0
 17 12  1  0  0  0
  1  2  1  0  0  0
 10 11  1  0  0  0
M  END
> <minimizedAffinity>
-7.58514

> <CNNscore>
0.1376571357

> <CNNaffinity>
7.2994856834

> <CNN_VS>
1.0048263073

> <CNNaffinity_variance>
0.0713621005

$$$$
[H]c1nc(N([H])c2c([H])c([H])c(N3C([H])([H])C([H])([H])C([H])(N4C([H])([H])C([H])([H])N(C([H])([H])[H])C([H])([H])C4([H])[H])C([H])([H])C3([H])[H])c([H])c2OC([H])([H])[H])nc(N([H])c2c([H])c([H])c([H])c([H])c2S(=O)(=O)C([H])(C([H])([H])[H])C([H])([H])[H])c1Cl


 44 48  0  0  0  0  0  0  0  0999 V2000
  -90.5475   32.2435   -2.6174 N   0  0  0  0  0  0  0  0  0  0  0  0
  -91.1711   33.0598   -2.9578 H   0  0  0  0  0  0  0  0  0  0  0  0
  -89.2026   32.5730   -2.3024 C   0  0  0  0  0  0  0  0  0  0  0  0
  -88.5861   33.7241   -2.5821 N   0  0  0  0  0  0  0  0  0  0  0  0
  -87.3117   33.9703   -2.2539 C   0  0  0  0  0  0  0  0  0  0  0  0
  -86.5761   33.0119   -1.5969 C   0  0  0  0  0  0  0  0  0  0  0  0
  -84.8988   33.3180   -1.1571 Cl  0  0  0  0  0  0  0  0  0  0  0  0
  -87.2040   31.7871   -1.2897 C   0  0  0  0  0  0  0  0  0  0  0  0
  -88.4778   31.6379   -1.6588 N   0  0  0  0  0  0  0  0  0  0  0  0
  -86.4322   30.8272   -0.6173 N   0  0  0  0  0  0  0  0  0  0  0  0
  -85.4550   31.1654   -0.3313 H   0  0  0  0  0  0  0  0  0  0  0  0
  -86.7073   29.5014   -0.2497 C   0  0  0  0  0  0  0  0  0  0  0  0
  -87.5480   28.7308   -1.0247 C   0  0  0  0  0  0  0  0  0  0  0  0
  -87.8341   27.4062   -0.6703 C   0  0  0  0  0  0  0  0  0  0  0  0
  -87.2693   26.8853    0.4550 C   0  0  0  0  0  0  0  0  0  0  0  0
  -86.4302   27.6570    1.2266 C   0  0  0  0  0  0  0  0  0  0  0  0
  -86.1331   28.9552    0.9034 C   0  0  0  0  0  0  0  0  0  0  0  0
  -85.0849   29.9029    1.8747 S   0  0  0  0  0  0  0  0  0  0  0  0
  -85.1222   29.4119    3.3001 O   0  0  0  0  0  0  0  0  0  0  0  0
  -85.3978   31.3730    1.8863 O   0  0  0  0  0  0  0  0  0  0  0  0
  -83.3811   29.7766    1.3656 C   0  0  0  0  0  0  0  0  0  0  0  0
  -82.7662   31.1311    1.2243 C   0  0  0  0  0  0  0  0  0  0  0  0
  -82.5922   28.7955    2.1668 C   0  0  0  0  0  0  0  0  0  0  0  0
  -92.1365   30.6945   -3.5381 C   0  0  0  0  0  0  0  0  0  0  0  0
  -92.8100   29.4867   -3.5418 C   0  0  0  0  0  0  0  0  0  0  0  0
  -92.5832   28.5254   -2.5822 C   0  0  0  0  0  0  0  0  0  0  0  0
  -91.6507   28.8333   -1.6216 C   0  0  0  0  0  0  0  0  0  0  0  0
  -90.9524   30.0444   -1.5883 C   0  0  0  0  0  0  0  0  0  0  0  0
  -91.1827   30.9985   -2.5472 C   0  0  0  0  0  0  0  0  0  0  0  0
  -93.2822   27.2779   -2.6036 N   0  0  0  0  0  0  0  0  0  0  0  0
  -94.6884   27.2942   -2.8196 C   0  0  0  0  0  0  0  0  0  0  0  0
  -95.3143   25.9769   -3.1827 C   0  0  0  0  0  0  0  0  0  0  0  0
  -94.8122   24.8164   -2.3913 C   0  0  0  0  0  0  0  0  0  0  0  0
  -93.5213   25.1155   -1.6557 C   0  0  0  0  0  0  0  0  0  0  0  0
  -92.6042   26.0189   -2.4080 C   0  0  0  0  0  0  0  0  0  0  0  0
  -94.6883   23.5804   -3.0551 N   0  0  0  0  0  0  0  0  0  0  0  0
  -93.8942   22.5698   -2.4917 C   0  0  0  0  0  0  0  0  0  0  0  0
  -93.6006   21.4995   -3.5468 C   0  0  0  0  0  0  0  0  0  0  0  0
  -94.8391   21.2166   -4.2458 N   0  0  0  0  0  0  0  0  0  0  0  0
  -95.8023   20.5049   -3.4681 C   0  0  0  0  0  0  0  0  0  0  0  0
  -95.3405   22.3323   -4.9813 C   0  0  0  0  0  0  0  0  0  0  0  0
  -94.6577   23.6041   -4.4823 C   0  0  0  0  0  0  0  0  0  0  0  0
  -93.0483   31.1780   -5.7135 C   0  0  0  0  0  0  0  0  0  0  0  0
  -92.4137   31.6176   -4.5345 O   0  0  0  0  0  0  0  0  0  0  0  0
 43 44  1  0  0  0
 44 24  1  0  0  0
 24 25  2  0  0  0
 25 26  1  0  0  0
 26 27  2  0  0  0
 27 28  1  0  0  0
 28 29  2  0  0  0
 29  1  1  0  0  0
  1  3  1  0  0  0
  3  4  2  0  0  0
  4  5  1  0  0  0
  5  6  2  0  0  0
  6  7  1  0  0  0
  6  8  1  0  0  0
  8 10  1  0  0  0
 10 12  1  0  0  0
 12 13  2  0  0  0
 13 14  1  0  0  0
 14 15  2  0  0  0
 15 16  1  0  0  0
 16 17  2  0  0  0
 17 18  1  0  0  0
 18 19  2  0  0  0
 18 20  2  0  0  0
 18 21  1  0  0  0
 21 22  1  0  0  0
 21 23  1  0  0  0
  8  9  2  0  0  0
 26 30  1  0  0  0
 30 31  1  0  0  0
 31 32  1  0  0  0
 32 33  1  0  0  0
 33 34  1  0  0  0
 34 35  1  0  0  0
 33 36  1  0  0  0
 36 37  1  0  0  0
 37 38  1  0  0  0
 38 39  1  0  0  0
 39 40  1  0  0  0
 39 41  1  0  0  0
 41 42  1  0  0  0
 29 24  1  0  0  0
  9  3  1  0  0  0
 35 30  1  0  0  0
 42 36  1  0  0  0
 17 12  1  0  0  0
  1  2  1  0  0  0
 10 11  1  0  0  0
M  END
> <minimizedAffinity>
-8.08375

> <CNNscore>
0.1325761825

> <CNNaffinity>
6.8472929001

> <CNN_VS>
0.9077879786

> <CNNaffinity_variance>
0.3986845315

$$$$
[H]c1nc(N([H])c2c([H])c([H])c(N3C([H])([H])C([H])([H])C([H])(N4C([H])([H])C([H])([H])N(C([H])([H])[H])C([H])([H])C4([H])[H])C([H])([H])C3([H])[H])c([H])c2OC([H])([H])[H])nc(N([H])c2c([H])c([H])c([H])c([H])c2S(=O)(=O)C([H])(C([H])([H])[H])C([H])([H])[H])c1Cl


 44 48  0  0  0  0  0  0  0  0999 V2000
  -87.4939   26.2213    1.8115 N   0  0  0  0  0  0  0  0  0  0  0  0
  -87.5432   25.5564    2.6640 H   0  0  0  0  0  0  0  0  0  0  0  0
  -86.3844   27.1067    1.7721 C   0  0  0  0  0  0  0  0  0  0  0  0
  -85.3587   27.1248    2.6270 N   0  0  0  0  0  0  0  0  0  0  0  0
  -84.3407   27.9891    2.5305 C   0  0  0  0  0  0  0  0  0  0  0  0
  -84.3218   28.9144    1.5134 C   0  0  0  0  0  0  0  0  0  0  0  0
  -82.9912   30.0588    1.3705 Cl  0  0  0  0  0  0  0  0  0  0  0  0
  -85.3936   28.9163    0.5968 C   0  0  0  0  0  0  0  0  0  0  0  0
  -86.3610   28.0150    0.7778 N   0  0  0  0  0  0  0  0  0  0  0  0
  -85.3492   29.8691   -0.4325 N   0  0  0  0  0  0  0  0  0  0  0  0
  -84.8044   29.5567   -1.3023 H   0  0  0  0  0  0  0  0  0  0  0  0
  -85.8899   31.1599   -0.5312 C   0  0  0  0  0  0  0  0  0  0  0  0
  -85.1682   32.2464   -0.0841 C   0  0  0  0  0  0  0  0  0  0  0  0
  -85.6948   33.5413   -0.1740 C   0  0  0  0  0  0  0  0  0  0  0  0
  -86.9350   33.7158   -0.7109 C   0  0  0  0  0  0  0  0  0  0  0  0
  -87.6530   32.6292   -1.1566 C   0  0  0  0  0  0  0  0  0  0  0  0
  -87.1623   31.3519   -1.0810 C   0  0  0  0  0  0  0  0  0  0  0  0
  -88.0691   30.0090   -1.6417 S   0  0  0  0  0  0  0  0  0  0  0  0
  -88.8534   29.4077   -0.5027 O   0  0  0  0  0  0  0  0  0  0  0  0
  -87.2492   28.9138   -2.2643 O   0  0  0  0  0  0  0  0  0  0  0  0
  -89.2769   30.4654   -2.8710 C   0  0  0  0  0  0  0  0  0  0  0  0
  -88.6198   30.7507   -4.1823 C   0  0  0  0  0  0  0  0  0  0  0  0
  -90.4460   29.5397   -2.9284 C   0  0  0  0  0  0  0  0  0  0  0  0
  -89.8360   26.4374    1.3215 C   0  0  0  0  0  0  0  0  0  0  0  0
  -90.9258   26.3358    0.4763 C   0  0  0  0  0  0  0  0  0  0  0  0
  -90.8001   25.8909   -0.8209 C   0  0  0  0  0  0  0  0  0  0  0  0
  -89.5321   25.5541   -1.2280 C   0  0  0  0  0  0  0  0  0  0  0  0
  -88.4091   25.6447   -0.3996 C   0  0  0  0  0  0  0  0  0  0  0  0
  -88.5406   26.0887    0.8922 C   0  0  0  0  0  0  0  0  0  0  0  0
  -91.9355   25.7982   -1.6855 N   0  0  0  0  0  0  0  0  0  0  0  0
  -93.2133   25.5723   -1.1020 C   0  0  0  0  0  0  0  0  0  0  0  0
  -94.3979   25.8317   -1.9898 C   0  0  0  0  0  0  0  0  0  0  0  0
  -94.2451   25.3277   -3.3854 C   0  0  0  0  0  0  0  0  0  0  0  0
  -92.8091   25.0000   -3.7426 C   0  0  0  0  0  0  0  0  0  0  0  0
  -91.8165   25.9211   -3.1186 C   0  0  0  0  0  0  0  0  0  0  0  0
  -94.8135   26.0949   -4.4207 N   0  0  0  0  0  0  0  0  0  0  0  0
  -95.0184   27.4700   -4.2296 C   0  0  0  0  0  0  0  0  0  0  0  0
  -95.9766   27.9999   -5.3001 C   0  0  0  0  0  0  0  0  0  0  0  0
  -95.5657   27.4446   -6.5750 N   0  0  0  0  0  0  0  0  0  0  0  0
  -94.3442   27.9826   -7.0828 C   0  0  0  0  0  0  0  0  0  0  0  0
  -95.6896   26.0242   -6.6390 C   0  0  0  0  0  0  0  0  0  0  0  0
  -95.8186   25.4720   -5.2210 C   0  0  0  0  0  0  0  0  0  0  0  0
  -90.7714   28.0771    2.8163 C   0  0  0  0  0  0  0  0  0  0  0  0
  -90.0340   26.8930    2.6158 O   0  0  0  0  0  0  0  0  0  0  0  0
 43 44  1  0  0  0
 44 24  1  0  0  0
 24 25  2  0  0  0
 25 26  1  0  0  0
 26 27  2  0  0  0
 27 28  1  0  0  0
 28 29  2  0  0  0
 29  1  1  0  0  0
  1  3  1  0  0  0
  3  4  2  0  0  0
  4  5  1  0  0  0
  5  6  2  0  0  0
  6  7  1  0  0  0
  6  8  1  0  0  0
  8 10  1  0  0  0
 10 12  1  0  0  0
 12 13  2  0  0  0
 13 14  1  0  0  0
 14 15  2  0  0  0
 15 16  1  0  0  0
 16 17  2  0  0  0
 17 18  1  0  0  0
 18 19  2  0  0  0
 18 20  2  0  0  0
 18 21  1  0  0  0
 21 22  1  0  0  0
 21 23  1  0  0  0
  8  9  2  0  0  0
 26 30  1  0  0  0
 30 31  1  0  0  0
 31 32  1  0  0  0
 32 33  1  0  0  0
 33 34  1  0  0  0
 34 35  1  0  0  0
 33 36  1  0  0  0
 36 37  1  0  0  0
 37 38  1  0  0  0
 38 39  1  0  0  0
 39 40  1  0  0  0
 39 41  1  0  0  0
 41 42  1  0  0  0
 29 24  1  0  0  0
  9  3  1  0  0  0
 35 30  1  0  0  0
 42 36  1  0  0  0
 17 12  1  0  0  0
  1  2  1  0  0  0
 10 11  1  0  0  0
M  END
> <minimizedAffinity>
-8.12676

> <CNNscore>
0.1056118831

> <CNNaffinity>
7.0774445534

> <CNN_VS>
0.7474622726

> <CNNaffinity_variance>
0.2107190192

$$$$
[H]c1nc(N([H])c2c([H])c([H])c(N3C([H])([H])C([H])([H])C([H])(N4C([H])([H])C([H])([H])N(C([H])([H])[H])C([H])([H])C4([H])[H])C([H])([H])C3([H])[H])c([H])c2OC([H])([H])[H])nc(N([H])c2c([H])c([H])c([H])c([H])c2S(=O)(=O)C([H])(C([H])([H])[H])C([H])([H])[H])c1Cl


 44 48  0  0  0  0  0  0  0  0999 V2000
  -86.0367   33.0251   -0.3695 N   0  0  0  0  0  0  0  0  0  0  0  0
  -85.5637   33.8587    0.1332 H   0  0  0  0  0  0  0  0  0  0  0  0
  -85.7681   31.7377    0.1660 C   0  0  0  0  0  0  0  0  0  0  0  0
  -84.7721   31.4209    0.9972 N   0  0  0  0  0  0  0  0  0  0  0  0
  -84.5766   30.1825    1.4669 C   0  0  0  0  0  0  0  0  0  0  0  0
  -85.4252   29.1666    1.0940 C   0  0  0  0  0  0  0  0  0  0  0  0
  -85.1838   27.5317    1.7019 Cl  0  0  0  0  0  0  0  0  0  0  0  0
  -86.4855   29.4748    0.2168 C   0  0  0  0  0  0  0  0  0  0  0  0
  -86.5963   30.7390   -0.1960 N   0  0  0  0  0  0  0  0  0  0  0  0
  -87.3378   28.4209   -0.1465 N   0  0  0  0  0  0  0  0  0  0  0  0
  -86.8852   27.6832   -0.7805 H   0  0  0  0  0  0  0  0  0  0  0  0
  -88.6786   28.1555    0.1702 C   0  0  0  0  0  0  0  0  0  0  0  0
  -89.0541   27.9732    1.4844 C   0  0  0  0  0  0  0  0  0  0  0  0
  -90.3884   27.7057    1.8169 C   0  0  0  0  0  0  0  0  0  0  0  0
  -91.3156   27.6273    0.8215 C   0  0  0  0  0  0  0  0  0  0  0  0
  -90.9378   27.8099   -0.4895 C   0  0  0  0  0  0  0  0  0  0  0  0
  -89.6401   28.0728   -0.8430 C   0  0  0  0  0  0  0  0  0  0  0  0
  -89.1859   28.2990   -2.4809 S   0  0  0  0  0  0  0  0  0  0  0  0
  -90.1446   27.5661   -3.3853 O   0  0  0  0  0  0  0  0  0  0  0  0
  -87.7947   27.8389   -2.8159 O   0  0  0  0  0  0  0  0  0  0  0  0
  -89.2620   30.0084   -2.9814 C   0  0  0  0  0  0  0  0  0  0  0  0
  -88.0491   30.3871   -3.7675 C   0  0  0  0  0  0  0  0  0  0  0  0
  -90.5677   30.3910   -3.5943 C   0  0  0  0  0  0  0  0  0  0  0  0
  -88.2314   33.2478   -1.3213 C   0  0  0  0  0  0  0  0  0  0  0  0
  -89.0920   33.5651   -2.3561 C   0  0  0  0  0  0  0  0  0  0  0  0
  -88.6302   34.0117   -3.5742 C   0  0  0  0  0  0  0  0  0  0  0  0
  -87.2672   34.1244   -3.7035 C   0  0  0  0  0  0  0  0  0  0  0  0
  -86.3692   33.8119   -2.6780 C   0  0  0  0  0  0  0  0  0  0  0  0
  -86.8354   33.3673   -1.4664 C   0  0  0  0  0  0  0  0  0  0  0  0
  -89.5331   34.3431   -4.6326 N   0  0  0  0  0  0  0  0  0  0  0  0
  -90.2870   35.5451   -4.5270 C   0  0  0  0  0  0  0  0  0  0  0  0
  -90.9409   36.0257   -5.7920 C   0  0  0  0  0  0  0  0  0  0  0  0
  -91.5817   34.9497   -6.6024 C   0  0  0  0  0  0  0  0  0  0  0  0
  -91.1308   33.5591   -6.2026 C   0  0  0  0  0  0  0  0  0  0  0  0
  -89.6999   33.4947   -5.7882 C   0  0  0  0  0  0  0  0  0  0  0  0
  -91.5223   35.0678   -8.0046 N   0  0  0  0  0  0  0  0  0  0  0  0
  -91.7784   33.9435   -8.8044 C   0  0  0  0  0  0  0  0  0  0  0  0
  -91.2850   34.2047  -10.2303 C   0  0  0  0  0  0  0  0  0  0  0  0
  -91.7079   35.5396  -10.6068 N   0  0  0  0  0  0  0  0  0  0  0  0
  -93.1126   35.6689  -10.8295 C   0  0  0  0  0  0  0  0  0  0  0  0
  -91.1103   36.5661   -9.8153 C   0  0  0  0  0  0  0  0  0  0  0  0
  -90.5325   35.9426   -8.5465 C   0  0  0  0  0  0  0  0  0  0  0  0
  -89.7813   31.8289   -0.1458 C   0  0  0  0  0  0  0  0  0  0  0  0
  -88.7641   32.8039   -0.1209 O   0  0  0  0  0  0  0  0  0  0  0  0
 43 44  1  0  0  0
 44 24  1  0  0  0
 24 25  2  0  0  0
 25 26  1  0  0  0
 26 27  2  0  0  0
 27 28  1  0  0  0
 28 29  2  0  0  0
 29  1  1  0  0  0
  1  3  1  0  0  0
  3  4  2  0  0  0
  4  5  1  0  0  0
  5  6  2  0  0  0
  6  7  1  0  0  0
  6  8  1  0  0  0
  8 10  1  0  0  0
 10 12  1  0  0  0
 12 13  2  0  0  0
 13 14  1  0  0  0
 14 15  2  0  0  0
 15 16  1  0  0  0
 16 17  2  0  0  0
 17 18  1  0  0  0
 18 19  2  0  0  0
 18 20  2  0  0  0
 18 21  1  0  0  0
 21 22  1  0  0  0
 21 23  1  0  0  0
  8  9  2  0  0  0
 26 30  1  0  0  0
 30 31  1  0  0  0
 31 32  1  0  0  0
 32 33  1  0  0  0
 33 34  1  0  0  0
 34 35  1  0  0  0
 33 36  1  0  0  0
 36 37  1  0  0  0
 37 38  1  0  0  0
 38 39  1  0  0  0
 39 40  1  0  0  0
 39 41  1  0  0  0
 41 42  1  0  0  0
 29 24  1  0  0  0
  9  3  1  0  0  0
 35 30  1  0  0  0
 42 36  1  0  0  0
 17 12  1  0  0  0
  1  2  1  0  0  0
 10 11  1  0  0  0
M  END
> <minimizedAffinity>
-7.65674

> <CNNscore>
0.1022564620

> <CNNaffinity>
7.0317468643

> <CNN_VS>
0.7190415263

> <CNNaffinity_variance>
0.3718753755

$$$$
[H]c1nc(N([H])c2c([H])c([H])c(N3C([H])([H])C([H])([H])C([H])(N4C([H])([H])C([H])([H])N(C([H])([H])[H])C([H])([H])C4([H])[H])C([H])([H])C3([H])[H])c([H])c2OC([H])([H])[H])nc(N([H])c2c([H])c([H])c([H])c([H])c2S(=O)(=O)C([H])(C([H])([H])[H])C([H])([H])[H])c1Cl


 44 48  0  0  0  0  0  0  0  0999 V2000
  -89.6789   32.2795   -1.2542 N   0  0  0  0  0  0  0  0  0  0  0  0
  -90.3035   33.0474   -0.8167 H   0  0  0  0  0  0  0  0  0  0  0  0
  -88.2799   32.4245   -1.0585 C   0  0  0  0  0  0  0  0  0  0  0  0
  -87.6088   33.5766   -0.9850 N   0  0  0  0  0  0  0  0  0  0  0  0
  -86.2848   33.6417   -0.7970 C   0  0  0  0  0  0  0  0  0  0  0  0
  -85.5533   32.4841   -0.6699 C   0  0  0  0  0  0  0  0  0  0  0  0
  -83.8112   32.5501   -0.4220 Cl  0  0  0  0  0  0  0  0  0  0  0  0
  -86.2384   31.2537   -0.7439 C   0  0  0  0  0  0  0  0  0  0  0  0
  -87.5588   31.2938   -0.9334 N   0  0  0  0  0  0  0  0  0  0  0  0
  -85.4691   30.0877   -0.6092 N   0  0  0  0  0  0  0  0  0  0  0  0
  -85.2332   29.6028   -1.5367 H   0  0  0  0  0  0  0  0  0  0  0  0
  -84.9505   29.4392    0.5216 C   0  0  0  0  0  0  0  0  0  0  0  0
  -83.7345   29.8277    1.0428 C   0  0  0  0  0  0  0  0  0  0  0  0
  -83.2022   29.1891    2.1702 C   0  0  0  0  0  0  0  0  0  0  0  0
  -83.9035   28.1741    2.7488 C   0  0  0  0  0  0  0  0  0  0  0  0
  -85.1173   27.7886    2.2263 C   0  0  0  0  0  0  0  0  0  0  0  0
  -85.6613   28.3958    1.1248 C   0  0  0  0  0  0  0  0  0  0  0  0
  -87.1752   27.9043    0.4870 S   0  0  0  0  0  0  0  0  0  0  0  0
  -87.0777   27.7573   -1.0107 O   0  0  0  0  0  0  0  0  0  0  0  0
  -88.3148   28.8384    0.7842 O   0  0  0  0  0  0  0  0  0  0  0  0
  -87.6879   26.3091    1.0958 C   0  0  0  0  0  0  0  0  0  0  0  0
  -88.3773   26.4396    2.4150 C   0  0  0  0  0  0  0  0  0  0  0  0
  -88.4040   25.4861    0.0776 C   0  0  0  0  0  0  0  0  0  0  0  0
  -90.6750   31.4972   -3.2957 C   0  0  0  0  0  0  0  0  0  0  0  0
  -91.3526   30.5535   -4.0457 C   0  0  0  0  0  0  0  0  0  0  0  0
  -91.7578   29.3523   -3.5078 C   0  0  0  0  0  0  0  0  0  0  0  0
  -91.4511   29.1441   -2.1850 C   0  0  0  0  0  0  0  0  0  0  0  0
  -90.7679   30.0767   -1.3983 C   0  0  0  0  0  0  0  0  0  0  0  0
  -90.3667   31.2720   -1.9399 C   0  0  0  0  0  0  0  0  0  0  0  0
  -92.4512   28.3829   -4.2983 N   0  0  0  0  0  0  0  0  0  0  0  0
  -92.2078   27.0042   -4.0448 C   0  0  0  0  0  0  0  0  0  0  0  0
  -93.1975   26.0408   -4.6374 C   0  0  0  0  0  0  0  0  0  0  0  0
  -93.6091   26.3609   -6.0350 C   0  0  0  0  0  0  0  0  0  0  0  0
  -93.2556   27.7760   -6.4469 C   0  0  0  0  0  0  0  0  0  0  0  0
  -93.3763   28.7654   -5.3380 C   0  0  0  0  0  0  0  0  0  0  0  0
  -94.9439   26.0956   -6.3977 N   0  0  0  0  0  0  0  0  0  0  0  0
  -95.5691   26.8956   -7.3663 C   0  0  0  0  0  0  0  0  0  0  0  0
  -97.0840   26.6789   -7.3112 C   0  0  0  0  0  0  0  0  0  0  0  0
  -97.3230   25.2525   -7.2084 N   0  0  0  0  0  0  0  0  0  0  0  0
  -97.0365   24.5222   -8.4017 C   0  0  0  0  0  0  0  0  0  0  0  0
  -96.8241   24.6815   -5.9991 C   0  0  0  0  0  0  0  0  0  0  0  0
  -95.8258   25.6494   -5.3673 C   0  0  0  0  0  0  0  0  0  0  0  0
  -89.1757   32.6888   -4.7551 C   0  0  0  0  0  0  0  0  0  0  0  0
  -90.2964   32.6857   -3.9006 O   0  0  0  0  0  0  0  0  0  0  0  0
 43 44  1  0  0  0
 44 24  1  0  0  0
 24 25  2  0  0  0
 25 26  1  0  0  0
 26 27  2  0  0  0
 27 28  1  0  0  0
 28 29  2  0  0  0
 29  1  1  0  0  0
  1  3  1  0  0  0
  3  4  2  0  0  0
  4  5  1  0  0  0
  5  6  2  0  0  0
  6  7  1  0  0  0
  6  8  1  0  0  0
  8 10  1  0  0  0
 10 12  1  0  0  0
 12 13  2  0  0  0
 13 14  1  0  0  0
 14 15  2  0  0  0
 15 16  1  0  0  0
 16 17  2  0  0  0
 17 18  1  0  0  0
 18 19  2  0  0  0
 18 20  2  0  0  0
 18 21  1  0  0  0
 21 22  1  0  0  0
 21 23  1  0  0  0
  8  9  2  0  0  0
 26 30  1  0  0  0
 30 31  1  0  0  0
 31 32  1  0  0  0
 32 33  1  0  0  0
 33 34  1  0  0  0
 34 35  1  0  0  0
 33 36  1  0  0  0
 36 37  1  0  0  0
 37 38  1  0  0  0
 38 39  1  0  0  0
 39 40  1  0  0  0
 39 41  1  0  0  0
 41 42  1  0  0  0
 29 24  1  0  0  0
  9  3  1  0  0  0
 35 30  1  0  0  0
 42 36  1  0  0  0
 17 12  1  0  0  0
  1  2  1  0  0  0
 10 11  1  0  0  0
M  END
> <minimizedAffinity>
-8.39189

> <CNNscore>
0.0779432282

> <CNNaffinity>
6.4263238907

> <CNN_VS>
0.5008884072

> <CNNaffinity_variance>
0.6937670708

$$$$
[H]c1nc(N([H])c2c([H])c([H])c(N3C([H])([H])C([H])([H])C([H])(N4C([H])([H])C([H])([H])N(C([H])([H])[H])C([H])([H])C4([H])[H])C([H])([H])C3([H])[H])c([H])c2OC([H])([H])[H])nc(N([H])c2c([H])c([H])c([H])c([H])c2S(=O)(=O)C([H])(C([H])([H])[H])C([H])([H])[H])c1Cl


 44 48  0  0  0  0  0  0  0  0999 V2000
  -91.0056   31.0852   -2.5152 N   0  0  0  0  0  0  0  0  0  0  0  0
  -91.7377   31.7645   -2.9321 H   0  0  0  0  0  0  0  0  0  0  0  0
  -89.7378   31.6449   -2.2056 C   0  0  0  0  0  0  0  0  0  0  0  0
  -89.3578   32.9064   -2.4236 N   0  0  0  0  0  0  0  0  0  0  0  0
  -88.1430   33.3702   -2.1048 C   0  0  0  0  0  0  0  0  0  0  0  0
  -87.2205   32.5321   -1.5238 C   0  0  0  0  0  0  0  0  0  0  0  0
  -85.6180   33.1246   -1.0975 Cl  0  0  0  0  0  0  0  0  0  0  0  0
  -87.5969   31.1946   -1.2828 C   0  0  0  0  0  0  0  0  0  0  0  0
  -88.8305   30.8282   -1.6364 N   0  0  0  0  0  0  0  0  0  0  0  0
  -86.6380   30.3608   -0.6874 N   0  0  0  0  0  0  0  0  0  0  0  0
  -85.6508   30.7790   -0.6472 H   0  0  0  0  0  0  0  0  0  0  0  0
  -86.7362   29.0757   -0.1329 C   0  0  0  0  0  0  0  0  0  0  0  0
  -87.4837   28.1060   -0.7670 C   0  0  0  0  0  0  0  0  0  0  0  0
  -87.5931   26.8188   -0.2253 C   0  0  0  0  0  0  0  0  0  0  0  0
  -86.9491   26.5347    0.9415 C   0  0  0  0  0  0  0  0  0  0  0  0
  -86.2034   27.5049    1.5720 C   0  0  0  0  0  0  0  0  0  0  0  0
  -86.0792   28.7717    1.0646 C   0  0  0  0  0  0  0  0  0  0  0  0
  -85.1455   29.9687    1.8618 S   0  0  0  0  0  0  0  0  0  0  0  0
  -85.0424   29.6449    3.3311 O   0  0  0  0  0  0  0  0  0  0  0  0
  -85.6790   31.3683    1.7356 O   0  0  0  0  0  0  0  0  0  0  0  0
  -83.4673   30.0367    1.2641 C   0  0  0  0  0  0  0  0  0  0  0  0
  -82.9893   31.4499    1.1801 C   0  0  0  0  0  0  0  0  0  0  0  0
  -82.5487   29.0902    1.9620 C   0  0  0  0  0  0  0  0  0  0  0  0
  -91.7441   29.0299   -3.5165 C   0  0  0  0  0  0  0  0  0  0  0  0
  -92.1821   27.7201   -3.4456 C   0  0  0  0  0  0  0  0  0  0  0  0
  -92.3444   27.0725   -2.2412 C   0  0  0  0  0  0  0  0  0  0  0  0
  -92.0468   27.8000   -1.1146 C   0  0  0  0  0  0  0  0  0  0  0  0
  -91.6022   29.1254   -1.1506 C   0  0  0  0  0  0  0  0  0  0  0  0
  -91.4425   29.7656   -2.3538 C   0  0  0  0  0  0  0  0  0  0  0  0
  -92.7911   25.7150   -2.1844 N   0  0  0  0  0  0  0  0  0  0  0  0
  -92.1222   24.7487   -2.9862 C   0  0  0  0  0  0  0  0  0  0  0  0
  -92.3815   23.3100   -2.6374 C   0  0  0  0  0  0  0  0  0  0  0  0
  -93.8076   22.9966   -2.3323 C   0  0  0  0  0  0  0  0  0  0  0  0
  -94.6409   24.2334   -2.0620 C   0  0  0  0  0  0  0  0  0  0  0  0
  -93.8945   25.3083   -1.3475 C   0  0  0  0  0  0  0  0  0  0  0  0
  -94.0643   22.0404   -1.3306 N   0  0  0  0  0  0  0  0  0  0  0  0
  -95.3783   21.8513   -0.8759 C   0  0  0  0  0  0  0  0  0  0  0  0
  -95.3582   21.0741    0.4433 C   0  0  0  0  0  0  0  0  0  0  0  0
  -94.4209   19.9776    0.2961 N   0  0  0  0  0  0  0  0  0  0  0  0
  -94.8693   18.9349   -0.5705 C   0  0  0  0  0  0  0  0  0  0  0  0
  -93.0741   20.4079    0.1004 C   0  0  0  0  0  0  0  0  0  0  0  0
  -93.0769   21.8784   -0.3120 C   0  0  0  0  0  0  0  0  0  0  0  0
  -92.7548   29.8596   -5.5383 C   0  0  0  0  0  0  0  0  0  0  0  0
  -91.6028   29.6211   -4.7624 O   0  0  0  0  0  0  0  0  0  0  0  0
 43 44  1  0  0  0
 44 24  1  0  0  0
 24 25  2  0  0  0
 25 26  1  0  0  0
 26 27  2  0  0  0
 27 28  1  0  0  0
 28 29  2  0  0  0
 29  1  1  0  0  0
  1  3  1  0  0  0
  3  4  2  0  0  0
  4  5  1  0  0  0
  5  6  2  0  0  0
  6  7  1  0  0  0
  6  8  1  0  0  0
  8 10  1  0  0  0
 10 12  1  0  0  0
 12 13  2  0  0  0
 13 14  1  0  0  0
 14 15  2  0  0  0
 15 16  1  0  0  0
 16 17  2  0  0  0
 17 18  1  0  0  0
 18 19  2  0  0  0
 18 20  2  0  0  0
 18 21  1  0  0  0
 21 22  1  0  0  0
 21 23  1  0  0  0
  8  9  2  0  0  0
 26 30  1  0  0  0
 30 31  1  0  0  0
 31 32  1  0  0  0
 32 33  1  0  0  0
 33 34  1  0  0  0
 34 35  1  0  0  0
 33 36  1  0  0  0
 36 37  1  0  0  0
 37 38  1  0  0  0
 38 39  1  0  0  0
 39 40  1  0  0  0
 39 41  1  0  0  0
 41 42  1  0  0  0
 29 24  1  0  0  0
  9  3  1  0  0  0
 35 30  1  0  0  0
 42 36  1  0  0  0
 17 12  1  0  0  0
  1  2  1  0  0  0
 10 11  1  0  0  0
M  END
> <minimizedAffinity>
-8.20297

> <CNNscore>
0.0720951483

> <CNNaffinity>
6.4594254494

> <CNN_VS>
0.4656932354

> <CNNaffinity_variance>
0.9118416905

$$$$
[H]c1nc(Oc2c([H])c([H])c(N([H])C(=O)N([H])c3c([H])c([H])c(C([H])([H])N4C([H])([H])C([H])([H])N(C([H])([H])C([H])([H])[H])C([H])([H])C4([H])[H])c(C(F)(F)F)c3[H])c([H])c2[H])c([H])c(N([H])C([H])([H])[H])n1


 41 44  0  0  0  0  0  0  0  0999 V2000
  -86.1569   34.2317   -2.9294 N   0  0  0  0  0  0  0  0  0  0  0  0
  -87.2929   34.4044   -3.7614 C   0  0  0  0  0  0  0  0  0  0  0  0
  -88.3552   33.7698   -3.6047 O   0  0  0  0  0  0  0  0  0  0  0  0
  -87.2154   35.3424   -4.8208 N   0  0  0  0  0  0  0  0  0  0  0  0
  -85.3021   34.8141   -3.1429 H   0  0  0  0  0  0  0  0  0  0  0  0
  -86.3060   35.8768   -4.9331 H   0  0  0  0  0  0  0  0  0  0  0  0
  -85.7326   31.5522    0.2910 C   0  0  0  0  0  0  0  0  0  0  0  0
  -86.9796   31.7719   -0.2101 C   0  0  0  0  0  0  0  0  0  0  0  0
  -87.1555   32.6676   -1.2784 C   0  0  0  0  0  0  0  0  0  0  0  0
  -86.1256   33.3430   -1.8552 C   0  0  0  0  0  0  0  0  0  0  0  0
  -84.8626   33.0852   -1.3072 C   0  0  0  0  0  0  0  0  0  0  0  0
  -84.6364   32.2236   -0.2672 C   0  0  0  0  0  0  0  0  0  0  0  0
  -83.2675   32.0160    0.2487 C   0  0  0  0  0  0  0  0  0  0  0  0
  -82.4299   32.9686   -0.3542 F   0  0  0  0  0  0  0  0  0  0  0  0
  -82.7137   30.8093   -0.0695 F   0  0  0  0  0  0  0  0  0  0  0  0
  -83.1533   32.3281    1.6104 F   0  0  0  0  0  0  0  0  0  0  0  0
  -85.5318   30.6052    1.3806 C   0  0  0  0  0  0  0  0  0  0  0  0
  -87.0778   27.0040    1.2602 N   0  0  0  0  0  0  0  0  0  0  0  0
  -87.1838   27.8929    0.1482 C   0  0  0  0  0  0  0  0  0  0  0  0
  -85.9575   28.7348   -0.1072 C   0  0  0  0  0  0  0  0  0  0  0  0
  -85.3309   29.2428    1.0618 N   0  0  0  0  0  0  0  0  0  0  0  0
  -85.4451   28.4340    2.2406 C   0  0  0  0  0  0  0  0  0  0  0  0
  -85.7727   27.0056    1.8639 C   0  0  0  0  0  0  0  0  0  0  0  0
  -88.7786   26.1139    2.7964 C   0  0  0  0  0  0  0  0  0  0  0  0
  -88.1258   27.3365    2.2055 C   0  0  0  0  0  0  0  0  0  0  0  0
  -88.2667   35.5896   -5.7142 C   0  0  0  0  0  0  0  0  0  0  0  0
  -88.0494   36.6056   -6.6516 C   0  0  0  0  0  0  0  0  0  0  0  0
  -89.0196   36.8841   -7.5741 C   0  0  0  0  0  0  0  0  0  0  0  0
  -90.2263   36.2176   -7.6469 C   0  0  0  0  0  0  0  0  0  0  0  0
  -90.4294   35.2249   -6.7257 C   0  0  0  0  0  0  0  0  0  0  0  0
  -89.4514   34.9221   -5.7731 C   0  0  0  0  0  0  0  0  0  0  0  0
  -91.1990   36.5363   -8.6131 O   0  0  0  0  0  0  0  0  0  0  0  0
  -91.8093   35.4525   -9.2490 C   0  0  0  0  0  0  0  0  0  0  0  0
  -93.0582   35.0082   -8.8711 C   0  0  0  0  0  0  0  0  0  0  0  0
  -93.6223   33.9210   -9.5399 C   0  0  0  0  0  0  0  0  0  0  0  0
  -92.9087   33.3615  -10.5260 N   0  0  0  0  0  0  0  0  0  0  0  0
  -91.6919   33.7875  -10.9005 C   0  0  0  0  0  0  0  0  0  0  0  0
  -91.1607   34.8334  -10.2498 N   0  0  0  0  0  0  0  0  0  0  0  0
  -94.9003   33.4264   -9.1912 N   0  0  0  0  0  0  0  0  0  0  0  0
  -95.1780   32.0211   -9.3582 C   0  0  0  0  0  0  0  0  0  0  0  0
  -95.6346   34.0620   -8.8188 H   0  0  0  0  0  0  0  0  0  0  0  0
 24 25  1  0  0  0
 25 18  1  0  0  0
 18 19  1  0  0  0
 19 20  1  0  0  0
 20 21  1  0  0  0
 21 17  1  0  0  0
 17  7  1  0  0  0
  7  8  2  0  0  0
  8  9  1  0  0  0
  9 10  2  0  0  0
 10  1  1  0  0  0
  1  2  1  0  0  0
  2  3  2  0  0  0
  2  4  1  0  0  0
  4 26  1  0  0  0
 26 27  2  0  0  0
 27 28  1  0  0  0
 28 29  2  0  0  0
 29 32  1  0  0  0
 32 33  1  0  0  0
 33 34  2  0  0  0
 34 35  1  0  0  0
 35 39  1  0  0  0
 39 40  1  0  0  0
 35 36  2  0  0  0
 36 37  1  0  0  0
 37 38  2  0  0  0
 29 30  1  0  0  0
 30 31  2  0  0  0
 10 11  1  0  0  0
 11 12  2  0  0  0
 12 13  1  0  0  0
 13 14  1  0  0  0
 13 15  1  0  0  0
 13 16  1  0  0  0
 21 22  1  0  0  0
 22 23  1  0  0  0
 23 18  1  0  0  0
 12  7  1  0  0  0
 31 26  1  0  0  0
 38 33  1  0  0  0
  1  5  1  0  0  0
  4  6  1  0  0  0
 39 41  1  0  0  0
M  END
> <minimizedAffinity>
-8.77771

> <CNNscore>
0.2441991121

> <CNNaffinity>
6.3010687828

> <CNN_VS>
1.5387153625

> <CNNaffinity_variance>
0.0614169240

$$$$
[H]c1nc(Oc2c([H])c([H])c(N([H])C(=O)N([H])c3c([H])c([H])c(C([H])([H])N4C([H])([H])C([H])([H])N(C([H])([H])C([H])([H])[H])C([H])([H])C4([H])[H])c(C(F)(F)F)c3[H])c([H])c2[H])c([H])c(N([H])C([H])([H])[H])n1


 41 44  0  0  0  0  0  0  0  0999 V2000
  -85.8957   34.0915   -2.3382 N   0  0  0  0  0  0  0  0  0  0  0  0
  -86.9664   34.5399   -3.1537 C   0  0  0  0  0  0  0  0  0  0  0  0
  -88.1089   34.0410   -3.1135 O   0  0  0  0  0  0  0  0  0  0  0  0
  -86.7250   35.6051   -4.0566 N   0  0  0  0  0  0  0  0  0  0  0  0
  -84.9636   34.5762   -2.4460 H   0  0  0  0  0  0  0  0  0  0  0  0
  -85.7489   36.0204   -4.0707 H   0  0  0  0  0  0  0  0  0  0  0  0
  -85.9521   30.9721    0.4896 C   0  0  0  0  0  0  0  0  0  0  0  0
  -87.1081   31.2782   -0.1617 C   0  0  0  0  0  0  0  0  0  0  0  0
  -87.1242   32.3202   -1.1042 C   0  0  0  0  0  0  0  0  0  0  0  0
  -86.0235   33.0575   -1.4114 C   0  0  0  0  0  0  0  0  0  0  0  0
  -84.8585   32.7067   -0.7172 C   0  0  0  0  0  0  0  0  0  0  0  0
  -84.7887   31.7018    0.2104 C   0  0  0  0  0  0  0  0  0  0  0  0
  -83.5146   31.4039    0.8967 C   0  0  0  0  0  0  0  0  0  0  0  0
  -82.5338   32.2661    0.3797 F   0  0  0  0  0  0  0  0  0  0  0  0
  -83.0281   30.1469    0.6785 F   0  0  0  0  0  0  0  0  0  0  0  0
  -83.5412   31.7518    2.2542 F   0  0  0  0  0  0  0  0  0  0  0  0
  -85.9142   29.8758    1.4495 C   0  0  0  0  0  0  0  0  0  0  0  0
  -88.1513   26.8171    0.4433 N   0  0  0  0  0  0  0  0  0  0  0  0
  -87.7959   27.8195   -0.5089 C   0  0  0  0  0  0  0  0  0  0  0  0
  -86.3881   28.3470   -0.3758 C   0  0  0  0  0  0  0  0  0  0  0  0
  -85.9530   28.5499    0.9610 N   0  0  0  0  0  0  0  0  0  0  0  0
  -86.5147   27.6729    1.9469 C   0  0  0  0  0  0  0  0  0  0  0  0
  -87.0552   26.4233    1.2867 C   0  0  0  0  0  0  0  0  0  0  0  0
  -90.0242   28.4090    0.4979 C   0  0  0  0  0  0  0  0  0  0  0  0
  -89.2891   27.2985    1.2023 C   0  0  0  0  0  0  0  0  0  0  0  0
  -87.6996   36.1241   -4.9199 C   0  0  0  0  0  0  0  0  0  0  0  0
  -88.4391   37.2066   -4.4307 C   0  0  0  0  0  0  0  0  0  0  0  0
  -89.3885   37.7838   -5.2278 C   0  0  0  0  0  0  0  0  0  0  0  0
  -89.6750   37.3634   -6.5111 C   0  0  0  0  0  0  0  0  0  0  0  0
  -88.9458   36.3037   -6.9810 C   0  0  0  0  0  0  0  0  0  0  0  0
  -87.9694   35.6979   -6.1840 C   0  0  0  0  0  0  0  0  0  0  0  0
  -90.6615   37.9859   -7.2988 O   0  0  0  0  0  0  0  0  0  0  0  0
  -90.6674   37.6474   -8.6541 C   0  0  0  0  0  0  0  0  0  0  0  0
  -91.4333   36.6053   -9.1308 C   0  0  0  0  0  0  0  0  0  0  0  0
  -91.4024   36.3094  -10.4943 C   0  0  0  0  0  0  0  0  0  0  0  0
  -90.6191   37.0653  -11.2752 N   0  0  0  0  0  0  0  0  0  0  0  0
  -89.8701   38.0819  -10.8194 C   0  0  0  0  0  0  0  0  0  0  0  0
  -89.9085   38.3562   -9.5069 N   0  0  0  0  0  0  0  0  0  0  0  0
  -92.1691   35.2510  -11.0341 N   0  0  0  0  0  0  0  0  0  0  0  0
  -92.0958   33.9479  -10.4205 C   0  0  0  0  0  0  0  0  0  0  0  0
  -92.7798   35.4034  -11.8622 H   0  0  0  0  0  0  0  0  0  0  0  0
 24 25  1  0  0  0
 25 18  1  0  0  0
 18 19  1  0  0  0
 19 20  1  0  0  0
 20 21  1  0  0  0
 21 17  1  0  0  0
 17  7  1  0  0  0
  7  8  2  0  0  0
  8  9  1  0  0  0
  9 10  2  0  0  0
 10  1  1  0  0  0
  1  2  1  0  0  0
  2  3  2  0  0  0
  2  4  1  0  0  0
  4 26  1  0  0  0
 26 27  2  0  0  0
 27 28  1  0  0  0
 28 29  2  0  0  0
 29 32  1  0  0  0
 32 33  1  0  0  0
 33 34  2  0  0  0
 34 35  1  0  0  0
 35 39  1  0  0  0
 39 40  1  0  0  0
 35 36  2  0  0  0
 36 37  1  0  0  0
 37 38  2  0  0  0
 29 30  1  0  0  0
 30 31  2  0  0  0
 10 11  1  0  0  0
 11 12  2  0  0  0
 12 13  1  0  0  0
 13 14  1  0  0  0
 13 15  1  0  0  0
 13 16  1  0  0  0
 21 22  1  0  0  0
 22 23  1  0  0  0
 23 18  1  0  0  0
 12  7  1  0  0  0
 31 26  1  0  0  0
 38 33  1  0  0  0
  1  5  1  0  0  0
  4  6  1  0  0  0
 39 41  1  0  0  0
M  END
> <minimizedAffinity>
-8.14991

> <CNNscore>
0.2415829152

> <CNNaffinity>
6.4527015686

> <CNN_VS>
1.5588624477

> <CNNaffinity_variance>
0.0908582956

$$$$
[H]c1nc(Oc2c([H])c([H])c(N([H])C(=O)N([H])c3c([H])c([H])c(C([H])([H])N4C([H])([H])C([H])([H])N(C([H])([H])C([H])([H])[H])C([H])([H])C4([H])[H])c(C(F)(F)F)c3[H])c([H])c2[H])c([H])c(N([H])C([H])([H])[H])n1


 41 44  0  0  0  0  0  0  0  0999 V2000
  -86.0436   34.1758   -2.8952 N   0  0  0  0  0  0  0  0  0  0  0  0
  -87.1568   34.3751   -3.7517 C   0  0  0  0  0  0  0  0  0  0  0  0
  -88.2337   33.7587   -3.6243 O   0  0  0  0  0  0  0  0  0  0  0  0
  -87.0381   35.3193   -4.8018 N   0  0  0  0  0  0  0  0  0  0  0  0
  -85.1738   34.7442   -3.0846 H   0  0  0  0  0  0  0  0  0  0  0  0
  -86.1169   35.8380   -4.8891 H   0  0  0  0  0  0  0  0  0  0  0  0
  -85.7419   31.4660    0.3136 C   0  0  0  0  0  0  0  0  0  0  0  0
  -86.9725   31.7103   -0.2156 C   0  0  0  0  0  0  0  0  0  0  0  0
  -87.1077   32.6166   -1.2809 C   0  0  0  0  0  0  0  0  0  0  0  0
  -86.0531   33.2789   -1.8275 C   0  0  0  0  0  0  0  0  0  0  0  0
  -84.8082   32.9959   -1.2513 C   0  0  0  0  0  0  0  0  0  0  0  0
  -84.6215   32.1230   -0.2129 C   0  0  0  0  0  0  0  0  0  0  0  0
  -83.2691   31.8886    0.3341 C   0  0  0  0  0  0  0  0  0  0  0  0
  -82.3905   32.7932   -0.2844 F   0  0  0  0  0  0  0  0  0  0  0  0
  -82.7498   30.6548    0.0655 F   0  0  0  0  0  0  0  0  0  0  0  0
  -83.1677   32.2419    1.6867 F   0  0  0  0  0  0  0  0  0  0  0  0
  -85.5832   30.5078    1.4004 C   0  0  0  0  0  0  0  0  0  0  0  0
  -87.1227   26.9061    1.2241 N   0  0  0  0  0  0  0  0  0  0  0  0
  -87.2083   27.8030    0.1168 C   0  0  0  0  0  0  0  0  0  0  0  0
  -85.9782   28.6479   -0.1089 C   0  0  0  0  0  0  0  0  0  0  0  0
  -85.3747   29.1479    1.0756 N   0  0  0  0  0  0  0  0  0  0  0  0
  -85.5107   28.3305    2.2461 C   0  0  0  0  0  0  0  0  0  0  0  0
  -85.8294   26.9046    1.8528 C   0  0  0  0  0  0  0  0  0  0  0  0
  -89.3612   27.8918    1.4741 C   0  0  0  0  0  0  0  0  0  0  0  0
  -88.1890   27.2307    2.1515 C   0  0  0  0  0  0  0  0  0  0  0  0
  -88.0639   35.5920   -5.7171 C   0  0  0  0  0  0  0  0  0  0  0  0
  -87.8089   36.6142   -6.6381 C   0  0  0  0  0  0  0  0  0  0  0  0
  -88.7524   36.9173   -7.5803 C   0  0  0  0  0  0  0  0  0  0  0  0
  -89.9671   36.2704   -7.6888 C   0  0  0  0  0  0  0  0  0  0  0  0
  -90.2072   35.2714   -6.7834 C   0  0  0  0  0  0  0  0  0  0  0  0
  -89.2569   34.9436   -5.8113 C   0  0  0  0  0  0  0  0  0  0  0  0
  -90.9115   36.6140   -8.6743 O   0  0  0  0  0  0  0  0  0  0  0  0
  -92.2038   36.8835   -8.2174 C   0  0  0  0  0  0  0  0  0  0  0  0
  -92.4847   38.0166   -7.4845 C   0  0  0  0  0  0  0  0  0  0  0  0
  -93.7932   38.2376   -7.0524 C   0  0  0  0  0  0  0  0  0  0  0  0
  -94.7166   37.3234   -7.3785 N   0  0  0  0  0  0  0  0  0  0  0  0
  -94.4518   36.2173   -8.0917 C   0  0  0  0  0  0  0  0  0  0  0  0
  -93.1903   36.0163   -8.5011 N   0  0  0  0  0  0  0  0  0  0  0  0
  -94.1341   39.3839   -6.2980 N   0  0  0  0  0  0  0  0  0  0  0  0
  -93.0828   40.2500   -5.8242 C   0  0  0  0  0  0  0  0  0  0  0  0
  -95.1277   39.6054   -6.0842 H   0  0  0  0  0  0  0  0  0  0  0  0
 24 25  1  0  0  0
 25 18  1  0  0  0
 18 19  1  0  0  0
 19 20  1  0  0  0
 20 21  1  0  0  0
 21 17  1  0  0  0
 17  7  1  0  0  0
  7  8  2  0  0  0
  8  9  1  0  0  0
  9 10  2  0  0  0
 10  1  1  0  0  0
  1  2  1  0  0  0
  2  3  2  0  0  0
  2  4  1  0  0  0
  4 26  1  0  0  0
 26 27  2  0  0  0
 27 28  1  0  0  0
 28 29  2  0  0  0
 29 32  1  0  0  0
 32 33  1  0  0  0
 33 34  2  0  0  0
 34 35  1  0  0  0
 35 39  1  0  0  0
 39 40  1  0  0  0
 35 36  2  0  0  0
 36 37  1  0  0  0
 37 38  2  0  0  0
 29 30  1  0  0  0
 30 31  2  0  0  0
 10 11  1  0  0  0
 11 12  2  0  0  0
 12 13  1  0  0  0
 13 14  1  0  0  0
 13 15  1  0  0  0
 13 16  1  0  0  0
 21 22  1  0  0  0
 22 23  1  0  0  0
 23 18  1  0  0  0
 12  7  1  0  0  0
 31 26  1  0  0  0
 38 33  1  0  0  0
  1  5  1  0  0  0
  4  6  1  0  0  0
 39 41  1  0  0  0
M  END
> <minimizedAffinity>
-7.98410

> <CNNscore>
0.1975529790

> <CNNaffinity>
6.2847504616

> <CNN_VS>
1.2415711880

> <CNNaffinity_variance>
0.0734773278

$$$$
[H]c1nc(Oc2c([H])c([H])c(N([H])C(=O)N([H])c3c([H])c([H])c(C([H])([H])N4C([H])([H])C([H])([H])N(C([H])([H])C([H])([H])[H])C([H])([H])C4([H])[H])c(C(F)(F)F)c3[H])c([H])c2[H])c([H])c(N([H])C([H])([H])[H])n1


 41 44  0  0  0  0  0  0  0  0999 V2000
  -89.1170   24.2165   -1.2680 N   0  0  0  0  0  0  0  0  0  0  0  0
  -88.9940   25.6186   -1.0906 C   0  0  0  0  0  0  0  0  0  0  0  0
  -89.9204   26.3350   -0.6611 O   0  0  0  0  0  0  0  0  0  0  0  0
  -87.7597   26.2331   -1.4175 N   0  0  0  0  0  0  0  0  0  0  0  0
  -88.2766   23.6957   -1.6394 H   0  0  0  0  0  0  0  0  0  0  0  0
  -86.9823   25.6058   -1.7745 H   0  0  0  0  0  0  0  0  0  0  0  0
  -92.7555   22.1860   -0.6608 C   0  0  0  0  0  0  0  0  0  0  0  0
  -91.8700   22.2530    0.3714 C   0  0  0  0  0  0  0  0  0  0  0  0
  -90.6430   22.9154    0.1975 C   0  0  0  0  0  0  0  0  0  0  0  0
  -90.2814   23.5089   -0.9715 C   0  0  0  0  0  0  0  0  0  0  0  0
  -91.2232   23.4144   -2.0040 C   0  0  0  0  0  0  0  0  0  0  0  0
  -92.4316   22.7809   -1.8877 C   0  0  0  0  0  0  0  0  0  0  0  0
  -93.3627   22.7284   -3.0337 C   0  0  0  0  0  0  0  0  0  0  0  0
  -92.8149   23.5013   -4.0707 F   0  0  0  0  0  0  0  0  0  0  0  0
  -94.5908   23.2765   -2.7980 F   0  0  0  0  0  0  0  0  0  0  0  0
  -93.4347   21.4526   -3.6098 F   0  0  0  0  0  0  0  0  0  0  0  0
  -94.0434   21.5261   -0.4863 C   0  0  0  0  0  0  0  0  0  0  0  0
  -97.5015   23.2030    0.2900 N   0  0  0  0  0  0  0  0  0  0  0  0
  -97.3643   21.7835    0.2277 C   0  0  0  0  0  0  0  0  0  0  0  0
  -96.0784   21.2465    0.8074 C   0  0  0  0  0  0  0  0  0  0  0  0
  -94.9232   22.0159    0.5058 N   0  0  0  0  0  0  0  0  0  0  0  0
  -95.1307   23.4246    0.3350 C   0  0  0  0  0  0  0  0  0  0  0  0
  -96.4255   23.8453    0.9953 C   0  0  0  0  0  0  0  0  0  0  0  0
  -98.4109   22.7473   -1.9483 C   0  0  0  0  0  0  0  0  0  0  0  0
  -97.6527   23.7019   -1.0630 C   0  0  0  0  0  0  0  0  0  0  0  0
  -87.5241   27.6095   -1.2961 C   0  0  0  0  0  0  0  0  0  0  0  0
  -86.9737   28.0331   -0.0813 C   0  0  0  0  0  0  0  0  0  0  0  0
  -86.6899   29.3585    0.0992 C   0  0  0  0  0  0  0  0  0  0  0  0
  -86.9136   30.3303   -0.8554 C   0  0  0  0  0  0  0  0  0  0  0  0
  -87.4520   29.9059   -2.0410 C   0  0  0  0  0  0  0  0  0  0  0  0
  -87.7500   28.5554   -2.2483 C   0  0  0  0  0  0  0  0  0  0  0  0
  -86.6070   31.6852   -0.6288 O   0  0  0  0  0  0  0  0  0  0  0  0
  -87.2597   32.6071   -1.4507 C   0  0  0  0  0  0  0  0  0  0  0  0
  -86.5613   33.4045   -2.3318 C   0  0  0  0  0  0  0  0  0  0  0  0
  -87.2628   34.3090   -3.1301 C   0  0  0  0  0  0  0  0  0  0  0  0
  -88.5948   34.3528   -2.9939 N   0  0  0  0  0  0  0  0  0  0  0  0
  -89.2829   33.5802   -2.1385 C   0  0  0  0  0  0  0  0  0  0  0  0
  -88.5971   32.7148   -1.3767 N   0  0  0  0  0  0  0  0  0  0  0  0
  -86.5942   35.1495   -4.0498 N   0  0  0  0  0  0  0  0  0  0  0  0
  -87.3320   35.7035   -5.1583 C   0  0  0  0  0  0  0  0  0  0  0  0
  -85.5840   35.3692   -3.9344 H   0  0  0  0  0  0  0  0  0  0  0  0
 24 25  1  0  0  0
 25 18  1  0  0  0
 18 19  1  0  0  0
 19 20  1  0  0  0
 20 21  1  0  0  0
 21 17  1  0  0  0
 17  7  1  0  0  0
  7  8  2  0  0  0
  8  9  1  0  0  0
  9 10  2  0  0  0
 10  1  1  0  0  0
  1  2  1  0  0  0
  2  3  2  0  0  0
  2  4  1  0  0  0
  4 26  1  0  0  0
 26 27  2  0  0  0
 27 28  1  0  0  0
 28 29  2  0  0  0
 29 32  1  0  0  0
 32 33  1  0  0  0
 33 34  2  0  0  0
 34 35  1  0  0  0
 35 39  1  0  0  0
 39 40  1  0  0  0
 35 36  2  0  0  0
 36 37  1  0  0  0
 37 38  2  0  0  0
 29 30  1  0  0  0
 30 31  2  0  0  0
 10 11  1  0  0  0
 11 12  2  0  0  0
 12 13  1  0  0  0
 13 14  1  0  0  0
 13 15  1  0  0  0
 13 16  1  0  0  0
 21 22  1  0  0  0
 22 23  1  0  0  0
 23 18  1  0  0  0
 12  7  1  0  0  0
 31 26  1  0  0  0
 38 33  1  0  0  0
  1  5  1  0  0  0
  4  6  1  0  0  0
 39 41  1  0  0  0
M  END
> <minimizedAffinity>
-7.07609

> <CNNscore>
0.1096441373

> <CNNaffinity>
5.6097378731

> <CNN_VS>
0.6150748730

> <CNNaffinity_variance>
0.3939894736

$$$$
[H]c1nc(Oc2c([H])c([H])c(N([H])C(=O)N([H])c3c([H])c([H])c(C([H])([H])N4C([H])([H])C([H])([H])N(C([H])([H])C([H])([H])[H])C([H])([H])C4([H])[H])c(C(F)(F)F)c3[H])c([H])c2[H])c([H])c(N([H])C([H])([H])[H])n1


 41 44  0  0  0  0  0  0  0  0999 V2000
  -88.5714   25.4516   -1.6386 N   0  0  0  0  0  0  0  0  0  0  0  0
  -88.6998   26.8635   -1.5891 C   0  0  0  0  0  0  0  0  0  0  0  0
  -89.7296   27.4405   -1.1861 O   0  0  0  0  0  0  0  0  0  0  0  0
  -87.6053   27.6547   -2.0184 N   0  0  0  0  0  0  0  0  0  0  0  0
  -87.6601   25.0563   -1.9972 H   0  0  0  0  0  0  0  0  0  0  0  0
  -86.7363   27.1453   -2.3508 H   0  0  0  0  0  0  0  0  0  0  0  0
  -91.7861   22.9026   -0.6904 C   0  0  0  0  0  0  0  0  0  0  0  0
  -90.8181   23.1018    0.2464 C   0  0  0  0  0  0  0  0  0  0  0  0
  -89.7275   23.9393   -0.0430 C   0  0  0  0  0  0  0  0  0  0  0  0
  -89.5811   24.5788   -1.2343 C   0  0  0  0  0  0  0  0  0  0  0  0
  -90.6004   24.3442   -2.1659 C   0  0  0  0  0  0  0  0  0  0  0  0
  -91.6830   23.5379   -1.9353 C   0  0  0  0  0  0  0  0  0  0  0  0
  -92.7097   23.3463   -2.9803 C   0  0  0  0  0  0  0  0  0  0  0  0
  -92.5250   24.3409   -3.9546 F   0  0  0  0  0  0  0  0  0  0  0  0
  -93.9967   23.5070   -2.5535 F   0  0  0  0  0  0  0  0  0  0  0  0
  -92.5193   22.1652   -3.7107 F   0  0  0  0  0  0  0  0  0  0  0  0
  -92.9369   22.0586   -0.3940 C   0  0  0  0  0  0  0  0  0  0  0  0
  -94.3324   18.4555    0.2718 N   0  0  0  0  0  0  0  0  0  0  0  0
  -94.9126   19.3027   -0.7199 C   0  0  0  0  0  0  0  0  0  0  0  0
  -93.9227   20.1346   -1.4983 C   0  0  0  0  0  0  0  0  0  0  0  0
  -92.8685   20.6853   -0.7221 N   0  0  0  0  0  0  0  0  0  0  0  0
  -92.4608   19.9207    0.4207 C   0  0  0  0  0  0  0  0  0  0  0  0
  -92.8946   18.4793    0.2660 C   0  0  0  0  0  0  0  0  0  0  0  0
  -96.1611   19.6174    1.4342 C   0  0  0  0  0  0  0  0  0  0  0  0
  -94.8873   18.8227    1.5601 C   0  0  0  0  0  0  0  0  0  0  0  0
  -87.6197   29.0563   -2.0270 C   0  0  0  0  0  0  0  0  0  0  0  0
  -87.1612   29.6819   -0.8623 C   0  0  0  0  0  0  0  0  0  0  0  0
  -87.1193   31.0476   -0.8079 C   0  0  0  0  0  0  0  0  0  0  0  0
  -87.5068   31.8713   -1.8458 C   0  0  0  0  0  0  0  0  0  0  0  0
  -87.9535   31.2497   -2.9814 C   0  0  0  0  0  0  0  0  0  0  0  0
  -88.0047   29.8545   -3.0600 C   0  0  0  0  0  0  0  0  0  0  0  0
  -87.4481   33.2742   -1.7484 O   0  0  0  0  0  0  0  0  0  0  0  0
  -87.9673   33.9861   -2.8324 C   0  0  0  0  0  0  0  0  0  0  0  0
  -89.3115   34.2776   -2.9227 C   0  0  0  0  0  0  0  0  0  0  0  0
  -89.7778   34.9918   -4.0272 C   0  0  0  0  0  0  0  0  0  0  0  0
  -88.8806   35.3598   -4.9514 N   0  0  0  0  0  0  0  0  0  0  0  0
  -87.5700   35.0802   -4.8716 C   0  0  0  0  0  0  0  0  0  0  0  0
  -87.1342   34.3931   -3.8050 N   0  0  0  0  0  0  0  0  0  0  0  0
  -91.1468   35.3165   -4.1676 N   0  0  0  0  0  0  0  0  0  0  0  0
  -91.5815   36.6618   -3.8827 C   0  0  0  0  0  0  0  0  0  0  0  0
  -91.8364   34.5996   -4.4719 H   0  0  0  0  0  0  0  0  0  0  0  0
 24 25  1  0  0  0
 25 18  1  0  0  0
 18 19  1  0  0  0
 19 20  1  0  0  0
 20 21  1  0  0  0
 21 17  1  0  0  0
 17  7  1  0  0  0
  7  8  2  0  0  0
  8  9  1  0  0  0
  9 10  2  0  0  0
 10  1  1  0  0  0
  1  2  1  0  0  0
  2  3  2  0  0  0
  2  4  1  0  0  0
  4 26  1  0  0  0
 26 27  2  0  0  0
 27 28  1  0  0  0
 28 29  2  0  0  0
 29 32  1  0  0  0
 32 33  1  0  0  0
 33 34  2  0  0  0
 34 35  1  0  0  0
 35 39  1  0  0  0
 39 40  1  0  0  0
 35 36  2  0  0  0
 36 37  1  0  0  0
 37 38  2  0  0  0
 29 30  1  0  0  0
 30 31  2  0  0  0
 10 11  1  0  0  0
 11 12  2  0  0  0
 12 13  1  0  0  0
 13 14  1  0  0  0
 13 15  1  0  0  0
 13 16  1  0  0  0
 21 22  1  0  0  0
 22 23  1  0  0  0
 23 18  1  0  0  0
 12  7  1  0  0  0
 31 26  1  0  0  0
 38 33  1  0  0  0
  1  5  1  0  0  0
  4  6  1  0  0  0
 39 41  1  0  0  0
M  END
> <minimizedAffinity>
-7.27428

> <CNNscore>
0.0852197930

> <CNNaffinity>
5.3510537148

> <CNN_VS>
0.4560156763

> <CNNaffinity_variance>
0.3333232999

$$$$
[H]c1nc(Oc2c([H])c([H])c(N([H])C(=O)N([H])c3c([H])c([H])c(C([H])([H])N4C([H])([H])C([H])([H])N(C([H])([H])C([H])([H])[H])C([H])([H])C4([H])[H])c(C(F)(F)F)c3[H])c([H])c2[H])c([H])c(N([H])C([H])([H])[H])n1


 41 44  0  0  0  0  0  0  0  0999 V2000
  -86.4870   32.7472   -0.9898 N   0  0  0  0  0  0  0  0  0  0  0  0
  -87.2802   33.1080   -2.1092 C   0  0  0  0  0  0  0  0  0  0  0  0
  -87.9721   32.2890   -2.7466 O   0  0  0  0  0  0  0  0  0  0  0  0
  -87.2856   34.4637   -2.5220 N   0  0  0  0  0  0  0  0  0  0  0  0
  -85.9339   33.5122   -0.5163 H   0  0  0  0  0  0  0  0  0  0  0  0
  -86.6962   35.1458   -1.9627 H   0  0  0  0  0  0  0  0  0  0  0  0
  -86.0546   28.9306    0.7356 C   0  0  0  0  0  0  0  0  0  0  0  0
  -86.7221   29.0362   -0.4466 C   0  0  0  0  0  0  0  0  0  0  0  0
  -86.8915   30.2971   -1.0432 C   0  0  0  0  0  0  0  0  0  0  0  0
  -86.4136   31.4459   -0.4941 C   0  0  0  0  0  0  0  0  0  0  0  0
  -85.7344   31.2882    0.7207 C   0  0  0  0  0  0  0  0  0  0  0  0
  -85.5423   30.0843    1.3443 C   0  0  0  0  0  0  0  0  0  0  0  0
  -84.8146   30.0140    2.6282 C   0  0  0  0  0  0  0  0  0  0  0  0
  -84.4889   31.3251    3.0122 F   0  0  0  0  0  0  0  0  0  0  0  0
  -83.6190   29.3568    2.5724 F   0  0  0  0  0  0  0  0  0  0  0  0
  -85.6281   29.5804    3.6841 F   0  0  0  0  0  0  0  0  0  0  0  0
  -85.8476   27.6260    1.3518 C   0  0  0  0  0  0  0  0  0  0  0  0
  -89.7115   27.1005    0.9435 N   0  0  0  0  0  0  0  0  0  0  0  0
  -88.7806   26.4546    0.0752 C   0  0  0  0  0  0  0  0  0  0  0  0
  -87.5187   25.9719    0.7479 C   0  0  0  0  0  0  0  0  0  0  0  0
  -86.9815   26.8636    1.7141 N   0  0  0  0  0  0  0  0  0  0  0  0
  -87.9294   27.6829    2.4120 C   0  0  0  0  0  0  0  0  0  0  0  0
  -89.3112   27.0725    2.3244 C   0  0  0  0  0  0  0  0  0  0  0  0
  -91.1153   29.1134    1.0944 C   0  0  0  0  0  0  0  0  0  0  0  0
  -89.9234   28.4493    0.4554 C   0  0  0  0  0  0  0  0  0  0  0  0
  -88.0190   34.9359   -3.6191 C   0  0  0  0  0  0  0  0  0  0  0  0
  -88.7065   36.1392   -3.4256 C   0  0  0  0  0  0  0  0  0  0  0  0
  -89.4207   36.6763   -4.4607 C   0  0  0  0  0  0  0  0  0  0  0  0
  -89.5129   36.1008   -5.7122 C   0  0  0  0  0  0  0  0  0  0  0  0
  -88.8364   34.9238   -5.8918 C   0  0  0  0  0  0  0  0  0  0  0  0
  -88.0991   34.3561   -4.8479 C   0  0  0  0  0  0  0  0  0  0  0  0
  -90.2599   36.6871   -6.7512 O   0  0  0  0  0  0  0  0  0  0  0  0
  -89.5268   37.3799   -7.7176 C   0  0  0  0  0  0  0  0  0  0  0  0
  -88.1678   37.5702   -7.5885 C   0  0  0  0  0  0  0  0  0  0  0  0
  -87.4834   38.2697   -8.5834 C   0  0  0  0  0  0  0  0  0  0  0  0
  -88.1953   38.7238   -9.6235 N   0  0  0  0  0  0  0  0  0  0  0  0
  -89.5188   38.5431   -9.7572 C   0  0  0  0  0  0  0  0  0  0  0  0
  -90.1651   37.8691   -8.7941 N   0  0  0  0  0  0  0  0  0  0  0  0
  -86.0896   38.4921   -8.4990 N   0  0  0  0  0  0  0  0  0  0  0  0
  -85.5426   39.0663   -7.2944 C   0  0  0  0  0  0  0  0  0  0  0  0
  -85.4615   38.2471   -9.2912 H   0  0  0  0  0  0  0  0  0  0  0  0
 24 25  1  0  0  0
 25 18  1  0  0  0
 18 19  1  0  0  0
 19 20  1  0  0  0
 20 21  1  0  0  0
 21 17  1  0  0  0
 17  7  1  0  0  0
  7  8  2  0  0  0
  8  9  1  0  0  0
  9 10  2  0  0  0
 10  1  1  0  0  0
  1  2  1  0  0  0
  2  3  2  0  0  0
  2  4  1  0  0  0
  4 26  1  0  0  0
 26 27  2  0  0  0
 27 28  1  0  0  0
 28 29  2  0  0  0
 29 32  1  0  0  0
 32 33  1  0  0  0
 33 34  2  0  0  0
 34 35  1  0  0  0
 35 39  1  0  0  0
 39 40  1  0  0  0
 35 36  2  0  0  0
 36 37  1  0  0  0
 37 38  2  0  0  0
 29 30  1  0  0  0
 30 31  2  0  0  0
 10 11  1  0  0  0
 11 12  2  0  0  0
 12 13  1  0  0  0
 13 14  1  0  0  0
 13 15  1  0  0  0
 13 16  1  0  0  0
 21 22  1  0  0  0
 22 23  1  0  0  0
 23 18  1  0  0  0
 12  7  1  0  0  0
 31 26  1  0  0  0
 38 33  1  0  0  0
  1  5  1  0  0  0
  4  6  1  0  0  0
 39 41  1  0  0  0
M  END
> <minimizedAffinity>
-8.62001

> <CNNscore>
0.0620600916

> <CNNaffinity>
6.0678901672

> <CNN_VS>
0.3765738308

> <CNNaffinity_variance>
0.1828210503

$$$$
[H]c1nc(Oc2c([H])c([H])c(N([H])C(=O)N([H])c3c([H])c([H])c(C([H])([H])N4C([H])([H])C([H])([H])N(C([H])([H])C([H])([H])[H])C([H])([H])C4([H])[H])c(C(F)(F)F)c3[H])c([H])c2[H])c([H])c(N([H])C([H])([H])[H])n1


 41 44  0  0  0  0  0  0  0  0999 V2000
  -86.6409   33.0781   -1.0754 N   0  0  0  0  0  0  0  0  0  0  0  0
  -87.3794   33.3939   -2.2447 C   0  0  0  0  0  0  0  0  0  0  0  0
  -87.9383   32.5313   -2.9514 O   0  0  0  0  0  0  0  0  0  0  0  0
  -87.4860   34.7542   -2.6271 N   0  0  0  0  0  0  0  0  0  0  0  0
  -86.2021   33.8784   -0.5439 H   0  0  0  0  0  0  0  0  0  0  0  0
  -87.0096   35.4730   -2.0093 H   0  0  0  0  0  0  0  0  0  0  0  0
  -85.9309   29.2658    0.5656 C   0  0  0  0  0  0  0  0  0  0  0  0
  -86.6730   29.3541   -0.5727 C   0  0  0  0  0  0  0  0  0  0  0  0
  -86.9356   30.6127   -1.1398 C   0  0  0  0  0  0  0  0  0  0  0  0
  -86.4783   31.7760   -0.6038 C   0  0  0  0  0  0  0  0  0  0  0  0
  -85.7201   31.6358    0.5657 C   0  0  0  0  0  0  0  0  0  0  0  0
  -85.4358   30.4349    1.1591 C   0  0  0  0  0  0  0  0  0  0  0  0
  -84.6291   30.3835    2.3959 C   0  0  0  0  0  0  0  0  0  0  0  0
  -84.2881   31.7007    2.7440 F   0  0  0  0  0  0  0  0  0  0  0  0
  -83.4354   29.7321    2.2731 F   0  0  0  0  0  0  0  0  0  0  0  0
  -85.3727   29.9579    3.5052 F   0  0  0  0  0  0  0  0  0  0  0  0
  -85.6275   27.9652    1.1494 C   0  0  0  0  0  0  0  0  0  0  0  0
  -89.4481   27.1322    0.8624 N   0  0  0  0  0  0  0  0  0  0  0  0
  -88.4831   26.4742    0.0416 C   0  0  0  0  0  0  0  0  0  0  0  0
  -87.1821   26.1476    0.7335 C   0  0  0  0  0  0  0  0  0  0  0  0
  -86.6995   27.1625    1.6021 N   0  0  0  0  0  0  0  0  0  0  0  0
  -87.6957   27.9753    2.2372 C   0  0  0  0  0  0  0  0  0  0  0  0
  -89.0310   27.2635    2.2323 C   0  0  0  0  0  0  0  0  0  0  0  0
  -90.9737   29.0603    0.8699 C   0  0  0  0  0  0  0  0  0  0  0  0
  -89.7620   28.4104    0.2540 C   0  0  0  0  0  0  0  0  0  0  0  0
  -88.1777   35.1859   -3.7672 C   0  0  0  0  0  0  0  0  0  0  0  0
  -89.4845   35.6399   -3.5570 C   0  0  0  0  0  0  0  0  0  0  0  0
  -90.2111   36.1035   -4.6187 C   0  0  0  0  0  0  0  0  0  0  0  0
  -89.7345   36.1560   -5.9132 C   0  0  0  0  0  0  0  0  0  0  0  0
  -88.4546   35.7099   -6.1087 C   0  0  0  0  0  0  0  0  0  0  0  0
  -87.6924   35.2318   -5.0380 C   0  0  0  0  0  0  0  0  0  0  0  0
  -90.5164   36.6407   -6.9785 O   0  0  0  0  0  0  0  0  0  0  0  0
  -91.0702   35.6743   -7.8215 C   0  0  0  0  0  0  0  0  0  0  0  0
  -91.8527   34.6530   -7.3269 C   0  0  0  0  0  0  0  0  0  0  0  0
  -92.3815   33.7137   -8.2132 C   0  0  0  0  0  0  0  0  0  0  0  0
  -92.0954   33.8588   -9.5139 N   0  0  0  0  0  0  0  0  0  0  0  0
  -91.3343   34.8501  -10.0042 C   0  0  0  0  0  0  0  0  0  0  0  0
  -90.8319   35.7466   -9.1420 N   0  0  0  0  0  0  0  0  0  0  0  0
  -93.1902   32.6472   -7.7573 N   0  0  0  0  0  0  0  0  0  0  0  0
  -93.1929   32.3197   -6.3528 C   0  0  0  0  0  0  0  0  0  0  0  0
  -93.7775   32.1021   -8.4206 H   0  0  0  0  0  0  0  0  0  0  0  0
 24 25  1  0  0  0
 25 18  1  0  0  0
 18 19  1  0  0  0
 19 20  1  0  0  0
 20 21  1  0  0  0
 21 17  1  0  0  0
 17  7  1  0  0  0
  7  8  2  0  0  0
  8  9  1  0  0  0
  9 10  2  0  0  0
 10  1  1  0  0  0
  1  2  1  0  0  0
  2  3  2  0  0  0
  2  4  1  0  0  0
  4 26  1  0  0  0
 26 27  2  0  0  0
 27 28  1  0  0  0
 28 29  2  0  0  0
 29 32  1  0  0  0
 32 33  1  0  0  0
 33 34  2  0  0  0
 34 35  1  0  0  0
 35 39  1  0  0  0
 39 40  1  0  0  0
 35 36  2  0  0  0
 36 37  1  0  0  0
 37 38  2  0  0  0
 29 30  1  0  0  0
 30 31  2  0  0  0
 10 11  1  0  0  0
 11 12  2  0  0  0
 12 13  1  0  0  0
 13 14  1  0  0  0
 13 15  1  0  0  0
 13 16  1  0  0  0
 21 22  1  0  0  0
 22 23  1  0  0  0
 23 18  1  0  0  0
 12  7  1  0  0  0
 31 26  1  0  0  0
 38 33  1  0  0  0
  1  5  1  0  0  0
  4  6  1  0  0  0
 39 41  1  0  0  0
M  END
> <minimizedAffinity>
-8.77331

> <CNNscore>
0.0594555661

> <CNNaffinity>
6.1363792419

> <CNN_VS>
0.3648419082

> <CNNaffinity_variance>
0.1518441439

$$$$
[H]c1nc(Oc2c([H])c([H])c(N([H])C(=O)N([H])c3c([H])c([H])c(C([H])([H])N4C([H])([H])C([H])([H])N(C([H])([H])C([H])([H])[H])C([H])([H])C4([H])[H])c(C(F)(F)F)c3[H])c([H])c2[H])c([H])c(N([H])C([H])([H])[H])n1


 41 44  0  0  0  0  0  0  0  0999 V2000
  -91.6902   28.6394   -3.5657 N   0  0  0  0  0  0  0  0  0  0  0  0
  -90.6546   29.2978   -2.8539 C   0  0  0  0  0  0  0  0  0  0  0  0
  -89.9596   28.7337   -1.9852 O   0  0  0  0  0  0  0  0  0  0  0  0
  -90.3989   30.6610   -3.1445 N   0  0  0  0  0  0  0  0  0  0  0  0
  -92.2250   29.2024   -4.2816 H   0  0  0  0  0  0  0  0  0  0  0  0
  -90.9961   31.1205   -3.8912 H   0  0  0  0  0  0  0  0  0  0  0  0
  -92.3777   24.5445   -2.8660 C   0  0  0  0  0  0  0  0  0  0  0  0
  -93.3472   25.2673   -3.4919 C   0  0  0  0  0  0  0  0  0  0  0  0
  -93.1520   26.6381   -3.7315 C   0  0  0  0  0  0  0  0  0  0  0  0
  -92.0214   27.2997   -3.3658 C   0  0  0  0  0  0  0  0  0  0  0  0
  -91.0529   26.5159   -2.7257 C   0  0  0  0  0  0  0  0  0  0  0  0
  -91.1930   25.1784   -2.4678 C   0  0  0  0  0  0  0  0  0  0  0  0
  -90.1175   24.4314   -1.7833 C   0  0  0  0  0  0  0  0  0  0  0  0
  -88.9416   25.1950   -1.8657 F   0  0  0  0  0  0  0  0  0  0  0  0
  -89.7997   23.2335   -2.3562 F   0  0  0  0  0  0  0  0  0  0  0  0
  -90.3241   24.3383   -0.4001 F   0  0  0  0  0  0  0  0  0  0  0  0
  -92.5552   23.1162   -2.6358 C   0  0  0  0  0  0  0  0  0  0  0  0
  -92.9186   21.7690    1.0284 N   0  0  0  0  0  0  0  0  0  0  0  0
  -92.9004   23.1695    0.7528 C   0  0  0  0  0  0  0  0  0  0  0  0
  -93.6267   23.5755   -0.5064 C   0  0  0  0  0  0  0  0  0  0  0  0
  -93.4361   22.7026   -1.6105 N   0  0  0  0  0  0  0  0  0  0  0  0
  -93.2151   21.3219   -1.2920 C   0  0  0  0  0  0  0  0  0  0  0  0
  -93.7228   21.0199    0.1011 C   0  0  0  0  0  0  0  0  0  0  0  0
  -90.7292   22.0167    2.1194 C   0  0  0  0  0  0  0  0  0  0  0  0
  -91.5472   21.3005    1.0765 C   0  0  0  0  0  0  0  0  0  0  0  0
  -89.4120   31.4182   -2.4987 C   0  0  0  0  0  0  0  0  0  0  0  0
  -88.1993   31.5572   -3.1830 C   0  0  0  0  0  0  0  0  0  0  0  0
  -87.1991   32.3062   -2.6275 C   0  0  0  0  0  0  0  0  0  0  0  0
  -87.3046   32.9496   -1.4107 C   0  0  0  0  0  0  0  0  0  0  0  0
  -88.4952   32.8080   -0.7489 C   0  0  0  0  0  0  0  0  0  0  0  0
  -89.5323   32.0472   -1.2977 C   0  0  0  0  0  0  0  0  0  0  0  0
  -86.2496   33.7113   -0.8741 O   0  0  0  0  0  0  0  0  0  0  0  0
  -85.1647   32.9881   -0.3728 C   0  0  0  0  0  0  0  0  0  0  0  0
  -85.3451   31.9274    0.4887 C   0  0  0  0  0  0  0  0  0  0  0  0
  -84.2265   31.2386    0.9600 C   0  0  0  0  0  0  0  0  0  0  0  0
  -83.0226   31.6525    0.5431 N   0  0  0  0  0  0  0  0  0  0  0  0
  -82.8377   32.6844   -0.2955 C   0  0  0  0  0  0  0  0  0  0  0  0
  -83.9208   33.3382   -0.7414 N   0  0  0  0  0  0  0  0  0  0  0  0
  -84.3569   30.1437    1.8451 N   0  0  0  0  0  0  0  0  0  0  0  0
  -83.2341   29.2590    2.0365 C   0  0  0  0  0  0  0  0  0  0  0  0
  -85.2476   29.9729    2.3544 H   0  0  0  0  0  0  0  0  0  0  0  0
 24 25  1  0  0  0
 25 18  1  0  0  0
 18 19  1  0  0  0
 19 20  1  0  0  0
 20 21  1  0  0  0
 21 17  1  0  0  0
 17  7  1  0  0  0
  7  8  2  0  0  0
  8  9  1  0  0  0
  9 10  2  0  0  0
 10  1  1  0  0  0
  1  2  1  0  0  0
  2  3  2  0  0  0
  2  4  1  0  0  0
  4 26  1  0  0  0
 26 27  2  0  0  0
 27 28  1  0  0  0
 28 29  2  0  0  0
 29 32  1  0  0  0
 32 33  1  0  0  0
 33 34  2  0  0  0
 34 35  1  0  0  0
 35 39  1  0  0  0
 39 40  1  0  0  0
 35 36  2  0  0  0
 36 37  1  0  0  0
 37 38  2  0  0  0
 29 30  1  0  0  0
 30 31  2  0  0  0
 10 11  1  0  0  0
 11 12  2  0  0  0
 12 13  1  0  0  0
 13 14  1  0  0  0
 13 15  1  0  0  0
 13 16  1  0  0  0
 21 22  1  0  0  0
 22 23  1  0  0  0
 23 18  1  0  0  0
 12  7  1  0  0  0
 31 26  1  0  0  0
 38 33  1  0  0  0
  1  5  1  0  0  0
  4  6  1  0  0  0
 39 41  1  0  0  0
M  END
> <minimizedAffinity>
-8.06202

> <CNNscore>
0.0577896871

> <CNNaffinity>
6.0631098747

> <CNN_VS>
0.3503852189

> <CNNaffinity_variance>
0.1290124953

$$$$
[H]c1nc(Oc2c([H])c([H])c(N([H])C(=O)N([H])c3c([H])c([H])c(C([H])([H])N4C([H])([H])C([H])([H])N(C([H])([H])C([H])([H])[H])C([H])([H])C4([H])[H])c(C(F)(F)F)c3[H])c([H])c2[H])c([H])c(N([H])C([H])([H])[H])n1


 41 44  0  0  0  0  0  0  0  0999 V2000
  -89.7483   30.4681   -0.2286 N   0  0  0  0  0  0  0  0  0  0  0  0
  -89.7077   29.1144   -0.6509 C   0  0  0  0  0  0  0  0  0  0  0  0
  -89.2001   28.7525   -1.7312 O   0  0  0  0  0  0  0  0  0  0  0  0
  -90.2714   28.1276    0.1957 N   0  0  0  0  0  0  0  0  0  0  0  0
  -90.2015   30.6758    0.7025 H   0  0  0  0  0  0  0  0  0  0  0  0
  -90.6919   28.4548    1.1130 H   0  0  0  0  0  0  0  0  0  0  0  0
  -87.8927   33.6432   -2.2794 C   0  0  0  0  0  0  0  0  0  0  0  0
  -89.1603   33.2947   -2.6341 C   0  0  0  0  0  0  0  0  0  0  0  0
  -89.8035   32.2333   -1.9752 C   0  0  0  0  0  0  0  0  0  0  0  0
  -89.2178   31.5176   -0.9780 C   0  0  0  0  0  0  0  0  0  0  0  0
  -87.9150   31.9119   -0.6475 C   0  0  0  0  0  0  0  0  0  0  0  0
  -87.2432   32.9373   -1.2577 C   0  0  0  0  0  0  0  0  0  0  0  0
  -85.8670   33.2813   -0.8443 C   0  0  0  0  0  0  0  0  0  0  0  0
  -85.4021   32.2604    0.0009 F   0  0  0  0  0  0  0  0  0  0  0  0
  -85.7610   34.4247   -0.1057 F   0  0  0  0  0  0  0  0  0  0  0  0
  -84.9577   33.2324   -1.9099 F   0  0  0  0  0  0  0  0  0  0  0  0
  -87.2236   34.7598   -2.9353 C   0  0  0  0  0  0  0  0  0  0  0  0
  -87.3397   38.0554   -5.0563 N   0  0  0  0  0  0  0  0  0  0  0  0
  -86.8470   36.8354   -5.6101 C   0  0  0  0  0  0  0  0  0  0  0  0
  -87.5983   35.5982   -5.1825 C   0  0  0  0  0  0  0  0  0  0  0  0
  -87.9745   35.5745   -3.8131 N   0  0  0  0  0  0  0  0  0  0  0  0
  -88.2350   36.8487   -3.2086 C   0  0  0  0  0  0  0  0  0  0  0  0
  -88.5336   37.8807   -4.2741 C   0  0  0  0  0  0  0  0  0  0  0  0
  -86.6648   40.0061   -3.7206 C   0  0  0  0  0  0  0  0  0  0  0  0
  -86.2677   38.6734   -4.3003 C   0  0  0  0  0  0  0  0  0  0  0  0
  -90.3013   26.7623   -0.1200 C   0  0  0  0  0  0  0  0  0  0  0  0
  -91.4901   26.2894   -0.6867 C   0  0  0  0  0  0  0  0  0  0  0  0
  -91.5830   24.9736   -1.0472 C   0  0  0  0  0  0  0  0  0  0  0  0
  -90.5622   24.0581   -0.8873 C   0  0  0  0  0  0  0  0  0  0  0  0
  -89.4028   24.5305   -0.3323 C   0  0  0  0  0  0  0  0  0  0  0  0
  -89.2847   25.8722    0.0437 C   0  0  0  0  0  0  0  0  0  0  0  0
  -90.6994   22.7110   -1.2719 O   0  0  0  0  0  0  0  0  0  0  0  0
  -90.7549   21.7795   -0.2324 C   0  0  0  0  0  0  0  0  0  0  0  0
  -89.6425   21.4812    0.5250 C   0  0  0  0  0  0  0  0  0  0  0  0
  -89.7531   20.5426    1.5518 C   0  0  0  0  0  0  0  0  0  0  0  0
  -90.9510   19.9757    1.7473 N   0  0  0  0  0  0  0  0  0  0  0  0
  -92.0393   20.2601    1.0146 C   0  0  0  0  0  0  0  0  0  0  0  0
  -91.9201   21.1640    0.0305 N   0  0  0  0  0  0  0  0  0  0  0  0
  -88.6426   20.2011    2.3578 N   0  0  0  0  0  0  0  0  0  0  0  0
  -88.7857   20.2184    3.7928 C   0  0  0  0  0  0  0  0  0  0  0  0
  -87.7320   19.9400    1.9281 H   0  0  0  0  0  0  0  0  0  0  0  0
 24 25  1  0  0  0
 25 18  1  0  0  0
 18 19  1  0  0  0
 19 20  1  0  0  0
 20 21  1  0  0  0
 21 17  1  0  0  0
 17  7  1  0  0  0
  7  8  2  0  0  0
  8  9  1  0  0  0
  9 10  2  0  0  0
 10  1  1  0  0  0
  1  2  1  0  0  0
  2  3  2  0  0  0
  2  4  1  0  0  0
  4 26  1  0  0  0
 26 27  2  0  0  0
 27 28  1  0  0  0
 28 29  2  0  0  0
 29 32  1  0  0  0
 32 33  1  0  0  0
 33 34  2  0  0  0
 34 35  1  0  0  0
 35 39  1  0  0  0
 39 40  1  0  0  0
 35 36  2  0  0  0
 36 37  1  0  0  0
 37 38  2  0  0  0
 29 30  1  0  0  0
 30 31  2  0  0  0
 10 11  1  0  0  0
 11 12  2  0  0  0
 12 13  1  0  0  0
 13 14  1  0  0  0
 13 15  1  0  0  0
 13 16  1  0  0  0
 21 22  1  0  0  0
 22 23  1  0  0  0
 23 18  1  0  0  0
 12  7  1  0  0  0
 31 26  1  0  0  0
 38 33  1  0  0  0
  1  5  1  0  0  0
  4  6  1  0  0  0
 39 41  1  0  0  0
M  END
> <minimizedAffinity>
-7.96410

> <CNNscore>
0.0521807000

> <CNNaffinity>
5.5764322281

> <CNN_VS>
0.2909821272

> <CNNaffinity_variance>
0.2067391127

$$$$
[H]c1nc(N([H])c2c([H])c(OC([H])([H])[H])c(OC([H])([H])[H])c(OC([H])([H])[H])c2[H])nc(N([H])c2nc3c(c([H])c2[H])OC(C([H])([H])[H])(C([H])([H])[H])C(=O)N3[H])c1F


 37 40  0  0  0  0  0  0  0  0999 V2000
  -84.5716   32.6430   -0.0446 C   0  0  0  0  0  0  0  0  0  0  0  0
  -83.2423   32.5710   -0.1820 N   0  0  0  0  0  0  0  0  0  0  0  0
  -82.4601   31.6444    0.3755 C   0  0  0  0  0  0  0  0  0  0  0  0
  -83.0354   30.6841    1.1507 C   0  0  0  0  0  0  0  0  0  0  0  0
  -82.3673   29.6988    1.7669 F   0  0  0  0  0  0  0  0  0  0  0  0
  -84.4267   30.7041    1.3346 C   0  0  0  0  0  0  0  0  0  0  0  0
  -85.1214   31.6747    0.7329 N   0  0  0  0  0  0  0  0  0  0  0  0
  -85.4215   33.6051   -0.6184 N   0  0  0  0  0  0  0  0  0  0  0  0
  -85.1119   34.6221   -0.4820 H   0  0  0  0  0  0  0  0  0  0  0  0
  -88.8585   32.5204   -1.6353 C   0  0  0  0  0  0  0  0  0  0  0  0
  -87.7183   32.7546   -0.8532 C   0  0  0  0  0  0  0  0  0  0  0  0
  -86.6090   33.3536   -1.3305 C   0  0  0  0  0  0  0  0  0  0  0  0
  -86.6435   33.7463   -2.6837 C   0  0  0  0  0  0  0  0  0  0  0  0
  -87.7414   33.5329   -3.4757 C   0  0  0  0  0  0  0  0  0  0  0  0
  -88.8640   32.9163   -2.9608 C   0  0  0  0  0  0  0  0  0  0  0  0
  -89.8549   30.5659   -0.6490 C   0  0  0  0  0  0  0  0  0  0  0  0
  -89.9567   31.8993   -1.0715 O   0  0  0  0  0  0  0  0  0  0  0  0
  -87.7383   33.9285   -4.7873 O   0  0  0  0  0  0  0  0  0  0  0  0
  -87.7227   35.3069   -5.0946 C   0  0  0  0  0  0  0  0  0  0  0  0
  -90.0037   32.6773   -3.7259 O   0  0  0  0  0  0  0  0  0  0  0  0
  -90.0772   31.4559   -4.4494 C   0  0  0  0  0  0  0  0  0  0  0  0
  -85.0536   29.7185    2.1355 N   0  0  0  0  0  0  0  0  0  0  0  0
  -84.7834   29.6289    3.1242 H   0  0  0  0  0  0  0  0  0  0  0  0
  -86.0374   28.8800    1.5557 C   0  0  0  0  0  0  0  0  0  0  0  0
  -86.1861   28.8130    0.1625 C   0  0  0  0  0  0  0  0  0  0  0  0
  -87.1455   27.9945   -0.3870 C   0  0  0  0  0  0  0  0  0  0  0  0
  -87.9697   27.2331    0.4095 C   0  0  0  0  0  0  0  0  0  0  0  0
  -88.9475   26.3973   -0.1111 O   0  0  0  0  0  0  0  0  0  0  0  0
  -90.0658   25.9756    0.6546 C   0  0  0  0  0  0  0  0  0  0  0  0
  -90.6417   24.7104    0.0857 C   0  0  0  0  0  0  0  0  0  0  0  0
  -91.1012   27.0682    0.6983 C   0  0  0  0  0  0  0  0  0  0  0  0
  -89.6439   25.6816    2.0581 C   0  0  0  0  0  0  0  0  0  0  0  0
  -90.1584   24.7135    2.7000 O   0  0  0  0  0  0  0  0  0  0  0  0
  -88.6584   26.5241    2.6242 N   0  0  0  0  0  0  0  0  0  0  0  0
  -87.8144   27.3061    1.7931 C   0  0  0  0  0  0  0  0  0  0  0  0
  -86.8642   28.1194    2.2829 N   0  0  0  0  0  0  0  0  0  0  0  0
  -88.5626   26.5611    3.6556 H   0  0  0  0  0  0  0  0  0  0  0  0
 16 17  1  0  0  0
 17 10  1  0  0  0
 10 11  2  0  0  0
 11 12  1  0  0  0
 12  8  1  0  0  0
  8  1  1  0  0  0
  1  2  2  0  0  0
  2  3  1  0  0  0
  3  4  2  0  0  0
  4  5  1  0  0  0
  4  6  1  0  0  0
  6 22  1  0  0  0
 22 24  1  0  0  0
 24 25  2  0  0  0
 25 26  1  0  0  0
 26 27  2  0  0  0
 27 28  1  0  0  0
 28 29  1  0  0  0
 29 30  1  0  0  0
 29 31  1  0  0  0
 29 32  1  0  0  0
 32 33  2  0  0  0
 32 34  1  0  0  0
 34 35  1  0  0  0
 35 36  2  0  0  0
  6  7  2  0  0  0
 12 13  2  0  0  0
 13 14  1  0  0  0
 14 18  1  0  0  0
 18 19  1  0  0  0
 14 15  2  0  0  0
 15 20  1  0  0  0
 20 21  1  0  0  0
 15 10  1  0  0  0
  7  1  1  0  0  0
 36 24  1  0  0  0
 35 27  1  0  0  0
  8  9  1  0  0  0
 22 23  1  0  0  0
 34 37  1  0  0  0
M  END
> <minimizedAffinity>
-9.13332

> <CNNscore>
0.5525463223

> <CNNaffinity>
7.4508886337

> <CNN_VS>
4.1169610023

> <CNNaffinity_variance>
0.1391387880

$$$$
[H]c1nc(N([H])c2c([H])c(OC([H])([H])[H])c(OC([H])([H])[H])c(OC([H])([H])[H])c2[H])nc(N([H])c2nc3c(c([H])c2[H])OC(C([H])([H])[H])(C([H])([H])[H])C(=O)N3[H])c1F


 37 40  0  0  0  0  0  0  0  0999 V2000
  -84.6032   32.6712   -0.0465 C   0  0  0  0  0  0  0  0  0  0  0  0
  -83.2789   32.5814   -0.2181 N   0  0  0  0  0  0  0  0  0  0  0  0
  -82.4969   31.6374    0.3097 C   0  0  0  0  0  0  0  0  0  0  0  0
  -83.0667   30.6772    1.0890 C   0  0  0  0  0  0  0  0  0  0  0  0
  -82.3981   29.6756    1.6778 F   0  0  0  0  0  0  0  0  0  0  0  0
  -84.4526   30.7155    1.3082 C   0  0  0  0  0  0  0  0  0  0  0  0
  -85.1476   31.7026    0.7343 N   0  0  0  0  0  0  0  0  0  0  0  0
  -85.4528   33.6518   -0.5886 N   0  0  0  0  0  0  0  0  0  0  0  0
  -85.2152   34.6598   -0.3126 H   0  0  0  0  0  0  0  0  0  0  0  0
  -87.7999   33.5313   -3.5041 C   0  0  0  0  0  0  0  0  0  0  0  0
  -86.6534   33.7708   -2.7329 C   0  0  0  0  0  0  0  0  0  0  0  0
  -86.5563   33.4282   -1.4327 C   0  0  0  0  0  0  0  0  0  0  0  0
  -87.6843   32.8018   -0.8654 C   0  0  0  0  0  0  0  0  0  0  0  0
  -88.8201   32.5526   -1.5905 C   0  0  0  0  0  0  0  0  0  0  0  0
  -88.8923   32.9149   -2.9206 C   0  0  0  0  0  0  0  0  0  0  0  0
  -87.7535   35.2754   -5.1598 C   0  0  0  0  0  0  0  0  0  0  0  0
  -87.8211   33.9135   -4.8318 O   0  0  0  0  0  0  0  0  0  0  0  0
  -89.8973   31.9415   -1.0048 O   0  0  0  0  0  0  0  0  0  0  0  0
  -89.7378   30.6629   -0.4264 C   0  0  0  0  0  0  0  0  0  0  0  0
  -90.0247   32.6831   -3.6987 O   0  0  0  0  0  0  0  0  0  0  0  0
  -90.1319   31.4316   -4.3642 C   0  0  0  0  0  0  0  0  0  0  0  0
  -85.0738   29.7305    2.1142 N   0  0  0  0  0  0  0  0  0  0  0  0
  -84.8060   29.6501    3.1043 H   0  0  0  0  0  0  0  0  0  0  0  0
  -86.0489   28.8798    1.5374 C   0  0  0  0  0  0  0  0  0  0  0  0
  -86.1918   28.8006    0.1442 C   0  0  0  0  0  0  0  0  0  0  0  0
  -87.1427   27.9703   -0.4024 C   0  0  0  0  0  0  0  0  0  0  0  0
  -87.9639   27.2089    0.3971 C   0  0  0  0  0  0  0  0  0  0  0  0
  -88.9332   26.3613   -0.1205 O   0  0  0  0  0  0  0  0  0  0  0  0
  -90.0511   25.9370    0.6443 C   0  0  0  0  0  0  0  0  0  0  0  0
  -90.6150   24.6628    0.0834 C   0  0  0  0  0  0  0  0  0  0  0  0
  -91.0951   27.0217    0.6755 C   0  0  0  0  0  0  0  0  0  0  0  0
  -89.6322   25.6574    2.0517 C   0  0  0  0  0  0  0  0  0  0  0  0
  -90.1416   24.6903    2.6993 O   0  0  0  0  0  0  0  0  0  0  0  0
  -88.6555   26.5119    2.6148 N   0  0  0  0  0  0  0  0  0  0  0  0
  -87.8145   27.2939    1.7806 C   0  0  0  0  0  0  0  0  0  0  0  0
  -86.8725   28.1184    2.2674 N   0  0  0  0  0  0  0  0  0  0  0  0
  -88.5638   26.5579    3.6461 H   0  0  0  0  0  0  0  0  0  0  0  0
 16 17  1  0  0  0
 17 10  1  0  0  0
 10 11  2  0  0  0
 11 12  1  0  0  0
 12  8  1  0  0  0
  8  1  1  0  0  0
  1  2  2  0  0  0
  2  3  1  0  0  0
  3  4  2  0  0  0
  4  5  1  0  0  0
  4  6  1  0  0  0
  6 22  1  0  0  0
 22 24  1  0  0  0
 24 25  2  0  0  0
 25 26  1  0  0  0
 26 27  2  0  0  0
 27 28  1  0  0  0
 28 29  1  0  0  0
 29 30  1  0  0  0
 29 31  1  0  0  0
 29 32  1  0  0  0
 32 33  2  0  0  0
 32 34  1  0  0  0
 34 35  1  0  0  0
 35 36  2  0  0  0
  6  7  2  0  0  0
 12 13  2  0  0  0
 13 14  1  0  0  0
 14 18  1  0  0  0
 18 19  1  0  0  0
 14 15  2  0  0  0
 15 20  1  0  0  0
 20 21  1  0  0  0
 15 10  1  0  0  0
  7  1  1  0  0  0
 36 24  1  0  0  0
 35 27  1  0  0  0
  8  9  1  0  0  0
 22 23  1  0  0  0
 34 37  1  0  0  0
M  END
> <minimizedAffinity>
-9.14555

> <CNNscore>
0.5229586959

> <CNNaffinity>
7.4070014954

> <CNN_VS>
3.8735558987

> <CNNaffinity_variance>
0.1384578496

$$$$
[H]c1nc(N([H])c2c([H])c(OC([H])([H])[H])c(OC([H])([H])[H])c(OC([H])([H])[H])c2[H])nc(N([H])c2nc3c(c([H])c2[H])OC(C([H])([H])[H])(C([H])([H])[H])C(=O)N3[H])c1F


 37 40  0  0  0  0  0  0  0  0999 V2000
  -85.3685   27.6413    2.0281 C   0  0  0  0  0  0  0  0  0  0  0  0
  -84.1815   27.1772    2.4365 N   0  0  0  0  0  0  0  0  0  0  0  0
  -83.0472   27.8802    2.4600 C   0  0  0  0  0  0  0  0  0  0  0  0
  -83.0722   29.1752    2.0402 C   0  0  0  0  0  0  0  0  0  0  0  0
  -82.0078   29.9895    2.0127 F   0  0  0  0  0  0  0  0  0  0  0  0
  -84.2872   29.7221    1.5990 C   0  0  0  0  0  0  0  0  0  0  0  0
  -85.3674   28.9348    1.6144 N   0  0  0  0  0  0  0  0  0  0  0  0
  -86.5791   26.9268    1.9918 N   0  0  0  0  0  0  0  0  0  0  0  0
  -86.6177   26.0682    2.6320 H   0  0  0  0  0  0  0  0  0  0  0  0
  -88.9305   27.5725   -0.8503 C   0  0  0  0  0  0  0  0  0  0  0  0
  -87.7700   27.2353   -0.1391 C   0  0  0  0  0  0  0  0  0  0  0  0
  -87.7070   27.2319    1.2075 C   0  0  0  0  0  0  0  0  0  0  0  0
  -88.8874   27.5900    1.8894 C   0  0  0  0  0  0  0  0  0  0  0  0
  -90.0387   27.9244    1.2254 C   0  0  0  0  0  0  0  0  0  0  0  0
  -90.0746   27.9201   -0.1546 C   0  0  0  0  0  0  0  0  0  0  0  0
  -88.3132   28.6093   -2.9310 C   0  0  0  0  0  0  0  0  0  0  0  0
  -88.9140   27.5524   -2.2319 O   0  0  0  0  0  0  0  0  0  0  0  0
  -91.1672   28.2672    1.9223 O   0  0  0  0  0  0  0  0  0  0  0  0
  -91.0876   28.4543    3.3199 C   0  0  0  0  0  0  0  0  0  0  0  0
  -91.2204   28.2527   -0.8742 O   0  0  0  0  0  0  0  0  0  0  0  0
  -92.0653   27.1955   -1.3089 C   0  0  0  0  0  0  0  0  0  0  0  0
  -84.3445   31.0661    1.1564 N   0  0  0  0  0  0  0  0  0  0  0  0
  -83.6147   31.7255    1.4584 H   0  0  0  0  0  0  0  0  0  0  0  0
  -85.4054   31.4700    0.3087 C   0  0  0  0  0  0  0  0  0  0  0  0
  -86.6718   30.8770    0.4193 C   0  0  0  0  0  0  0  0  0  0  0  0
  -87.6929   31.2789   -0.4102 C   0  0  0  0  0  0  0  0  0  0  0  0
  -87.4955   32.2597   -1.3548 C   0  0  0  0  0  0  0  0  0  0  0  0
  -88.5028   32.6889   -2.2075 O   0  0  0  0  0  0  0  0  0  0  0  0
  -88.2237   33.3338   -3.4408 C   0  0  0  0  0  0  0  0  0  0  0  0
  -89.4047   34.1496   -3.8830 C   0  0  0  0  0  0  0  0  0  0  0  0
  -87.8523   32.3124   -4.4832 C   0  0  0  0  0  0  0  0  0  0  0  0
  -87.0702   34.2706   -3.2793 C   0  0  0  0  0  0  0  0  0  0  0  0
  -87.0509   35.3855   -3.8880 O   0  0  0  0  0  0  0  0  0  0  0  0
  -86.0191   33.8571   -2.4275 N   0  0  0  0  0  0  0  0  0  0  0  0
  -86.2336   32.8434   -1.4574 C   0  0  0  0  0  0  0  0  0  0  0  0
  -85.2684   32.4180   -0.6258 N   0  0  0  0  0  0  0  0  0  0  0  0
  -85.0899   34.3060   -2.5233 H   0  0  0  0  0  0  0  0  0  0  0  0
 16 17  1  0  0  0
 17 10  1  0  0  0
 10 11  2  0  0  0
 11 12  1  0  0  0
 12  8  1  0  0  0
  8  1  1  0  0  0
  1  2  2  0  0  0
  2  3  1  0  0  0
  3  4  2  0  0  0
  4  5  1  0  0  0
  4  6  1  0  0  0
  6 22  1  0  0  0
 22 24  1  0  0  0
 24 25  2  0  0  0
 25 26  1  0  0  0
 26 27  2  0  0  0
 27 28  1  0  0  0
 28 29  1  0  0  0
 29 30  1  0  0  0
 29 31  1  0  0  0
 29 32  1  0  0  0
 32 33  2  0  0  0
 32 34  1  0  0  0
 34 35  1  0  0  0
 35 36  2  0  0  0
  6  7  2  0  0  0
 12 13  2  0  0  0
 13 14  1  0  0  0
 14 18  1  0  0  0
 18 19  1  0  0  0
 14 15  2  0  0  0
 15 20  1  0  0  0
 20 21  1  0  0  0
 15 10  1  0  0  0
  7  1  1  0  0  0
 36 24  1  0  0  0
 35 27  1  0  0  0
  8  9  1  0  0  0
 22 23  1  0  0  0
 34 37  1  0  0  0
M  END
> <minimizedAffinity>
-9.20078

> <CNNscore>
0.5077290535

> <CNNaffinity>
7.4048414230

> <CNN_VS>
3.7596530914

> <CNNaffinity_variance>
0.1549968272

$$$$
[H]c1nc(N([H])c2c([H])c(OC([H])([H])[H])c(OC([H])([H])[H])c(OC([H])([H])[H])c2[H])nc(N([H])c2nc3c(c([H])c2[H])OC(C([H])([H])[H])(C([H])([H])[H])C(=O)N3[H])c1F


 37 40  0  0  0  0  0  0  0  0999 V2000
  -84.9072   31.8389    0.3553 C   0  0  0  0  0  0  0  0  0  0  0  0
  -83.6117   32.0848    0.5849 N   0  0  0  0  0  0  0  0  0  0  0  0
  -82.7469   31.2190    1.1176 C   0  0  0  0  0  0  0  0  0  0  0  0
  -83.1924   29.9799    1.4642 C   0  0  0  0  0  0  0  0  0  0  0  0
  -82.4311   29.0190    2.0064 F   0  0  0  0  0  0  0  0  0  0  0  0
  -84.5418   29.6593    1.2489 C   0  0  0  0  0  0  0  0  0  0  0  0
  -85.3270   30.5968    0.7093 N   0  0  0  0  0  0  0  0  0  0  0  0
  -85.8417   32.7286   -0.2037 N   0  0  0  0  0  0  0  0  0  0  0  0
  -85.8338   33.7154    0.2142 H   0  0  0  0  0  0  0  0  0  0  0  0
  -88.5414   31.2113   -2.3093 C   0  0  0  0  0  0  0  0  0  0  0  0
  -87.6719   31.4474   -1.2347 C   0  0  0  0  0  0  0  0  0  0  0  0
  -86.7602   32.4404   -1.2302 C   0  0  0  0  0  0  0  0  0  0  0  0
  -86.7164   33.2540   -2.3803 C   0  0  0  0  0  0  0  0  0  0  0  0
  -87.5517   33.0512   -3.4476 C   0  0  0  0  0  0  0  0  0  0  0  0
  -88.4757   32.0258   -3.4255 C   0  0  0  0  0  0  0  0  0  0  0  0
  -90.5319   30.2599   -1.3511 C   0  0  0  0  0  0  0  0  0  0  0  0
  -89.4484   30.1713   -2.2371 O   0  0  0  0  0  0  0  0  0  0  0  0
  -87.4800   33.8627   -4.5490 O   0  0  0  0  0  0  0  0  0  0  0  0
  -87.4185   35.2629   -4.3743 C   0  0  0  0  0  0  0  0  0  0  0  0
  -89.3457   31.7797   -4.4857 O   0  0  0  0  0  0  0  0  0  0  0  0
  -90.5895   32.4677   -4.5013 C   0  0  0  0  0  0  0  0  0  0  0  0
  -85.0344   28.3785    1.5992 N   0  0  0  0  0  0  0  0  0  0  0  0
  -84.4236   27.7291    2.1128 H   0  0  0  0  0  0  0  0  0  0  0  0
  -86.3561   28.0227    1.2338 C   0  0  0  0  0  0  0  0  0  0  0  0
  -87.3596   27.9108    2.2075 C   0  0  0  0  0  0  0  0  0  0  0  0
  -88.6388   27.5645    1.8385 C   0  0  0  0  0  0  0  0  0  0  0  0
  -88.9568   27.3236    0.5216 C   0  0  0  0  0  0  0  0  0  0  0  0
  -90.2362   26.9723    0.1146 O   0  0  0  0  0  0  0  0  0  0  0  0
  -90.4798   26.2969   -1.1098 C   0  0  0  0  0  0  0  0  0  0  0  0
  -91.8968   26.5181   -1.5559 C   0  0  0  0  0  0  0  0  0  0  0  0
  -90.1855   24.8282   -0.9549 C   0  0  0  0  0  0  0  0  0  0  0  0
  -89.5863   26.8374   -2.1794 C   0  0  0  0  0  0  0  0  0  0  0  0
  -90.0069   26.9658   -3.3713 O   0  0  0  0  0  0  0  0  0  0  0  0
  -88.2702   27.1921   -1.8007 N   0  0  0  0  0  0  0  0  0  0  0  0
  -87.9530   27.4373   -0.4391 C   0  0  0  0  0  0  0  0  0  0  0  0
  -86.7195   27.7778   -0.0307 N   0  0  0  0  0  0  0  0  0  0  0  0
  -87.5413   27.2702   -2.5334 H   0  0  0  0  0  0  0  0  0  0  0  0
 16 17  1  0  0  0
 17 10  1  0  0  0
 10 11  2  0  0  0
 11 12  1  0  0  0
 12  8  1  0  0  0
  8  1  1  0  0  0
  1  2  2  0  0  0
  2  3  1  0  0  0
  3  4  2  0  0  0
  4  5  1  0  0  0
  4  6  1  0  0  0
  6 22  1  0  0  0
 22 24  1  0  0  0
 24 25  2  0  0  0
 25 26  1  0  0  0
 26 27  2  0  0  0
 27 28  1  0  0  0
 28 29  1  0  0  0
 29 30  1  0  0  0
 29 31  1  0  0  0
 29 32  1  0  0  0
 32 33  2  0  0  0
 32 34  1  0  0  0
 34 35  1  0  0  0
 35 36  2  0  0  0
  6  7  2  0  0  0
 12 13  2  0  0  0
 13 14  1  0  0  0
 14 18  1  0  0  0
 18 19  1  0  0  0
 14 15  2  0  0  0
 15 20  1  0  0  0
 20 21  1  0  0  0
 15 10  1  0  0  0
  7  1  1  0  0  0
 36 24  1  0  0  0
 35 27  1  0  0  0
  8  9  1  0  0  0
 22 23  1  0  0  0
 34 37  1  0  0  0
M  END
> <minimizedAffinity>
-8.66957

> <CNNscore>
0.4759682119

> <CNNaffinity>
7.3327651024

> <CNN_VS>
3.4901630878

> <CNNaffinity_variance>
0.2520435154

$$$$
[H]c1nc(N([H])c2c([H])c(OC([H])([H])[H])c(OC([H])([H])[H])c(OC([H])([H])[H])c2[H])nc(N([H])c2nc3c(c([H])c2[H])OC(C([H])([H])[H])(C([H])([H])[H])C(=O)N3[H])c1F


 37 40  0  0  0  0  0  0  0  0999 V2000
  -84.9505   31.7293    0.6145 C   0  0  0  0  0  0  0  0  0  0  0  0
  -83.6368   31.9166    0.7892 N   0  0  0  0  0  0  0  0  0  0  0  0
  -82.7862   31.0047    1.2650 C   0  0  0  0  0  0  0  0  0  0  0  0
  -83.2676   29.7780    1.6075 C   0  0  0  0  0  0  0  0  0  0  0  0
  -82.5240   28.7751    2.0957 F   0  0  0  0  0  0  0  0  0  0  0  0
  -84.6376   29.5180    1.4480 C   0  0  0  0  0  0  0  0  0  0  0  0
  -85.4060   30.4984    0.9632 N   0  0  0  0  0  0  0  0  0  0  0  0
  -85.8708   32.6685    0.1161 N   0  0  0  0  0  0  0  0  0  0  0  0
  -85.9793   33.5548    0.7087 H   0  0  0  0  0  0  0  0  0  0  0  0
  -87.4112   33.1748   -3.2594 C   0  0  0  0  0  0  0  0  0  0  0  0
  -86.5938   33.3527   -2.1340 C   0  0  0  0  0  0  0  0  0  0  0  0
  -86.6400   32.5449   -1.0558 C   0  0  0  0  0  0  0  0  0  0  0  0
  -87.5678   31.4851   -1.1080 C   0  0  0  0  0  0  0  0  0  0  0  0
  -88.3811   31.2825   -2.1922 C   0  0  0  0  0  0  0  0  0  0  0  0
  -88.3130   32.1260   -3.2829 C   0  0  0  0  0  0  0  0  0  0  0  0
  -87.2826   35.4294   -4.0874 C   0  0  0  0  0  0  0  0  0  0  0  0
  -87.3038   34.0475   -4.3254 O   0  0  0  0  0  0  0  0  0  0  0  0
  -89.2711   30.2411   -2.2072 O   0  0  0  0  0  0  0  0  0  0  0  0
  -90.4625   30.3380   -1.4550 C   0  0  0  0  0  0  0  0  0  0  0  0
  -89.1188   31.9612   -4.4076 O   0  0  0  0  0  0  0  0  0  0  0  0
  -90.3677   32.6394   -4.4385 C   0  0  0  0  0  0  0  0  0  0  0  0
  -85.1676   28.2515    1.7957 N   0  0  0  0  0  0  0  0  0  0  0  0
  -84.5935   27.6023    2.3503 H   0  0  0  0  0  0  0  0  0  0  0  0
  -86.4752   27.9093    1.3711 C   0  0  0  0  0  0  0  0  0  0  0  0
  -87.5090   27.7482    2.3053 C   0  0  0  0  0  0  0  0  0  0  0  0
  -88.7740   27.4158    1.8791 C   0  0  0  0  0  0  0  0  0  0  0  0
  -89.0483   27.2367    0.5427 C   0  0  0  0  0  0  0  0  0  0  0  0
  -90.3122   26.9012    0.0781 O   0  0  0  0  0  0  0  0  0  0  0  0
  -90.5131   26.2839   -1.1841 C   0  0  0  0  0  0  0  0  0  0  0  0
  -91.9160   26.5216   -1.6649 C   0  0  0  0  0  0  0  0  0  0  0  0
  -90.2171   24.8104   -1.0895 C   0  0  0  0  0  0  0  0  0  0  0  0
  -89.5881   26.8774   -2.1973 C   0  0  0  0  0  0  0  0  0  0  0  0
  -89.9706   27.0609   -3.3948 O   0  0  0  0  0  0  0  0  0  0  0  0
  -88.2866   27.2179   -1.7598 N   0  0  0  0  0  0  0  0  0  0  0  0
  -88.0146   27.3990   -0.3786 C   0  0  0  0  0  0  0  0  0  0  0  0
  -86.7965   27.7236    0.0853 N   0  0  0  0  0  0  0  0  0  0  0  0
  -87.5348   27.3329   -2.4640 H   0  0  0  0  0  0  0  0  0  0  0  0
 16 17  1  0  0  0
 17 10  1  0  0  0
 10 11  2  0  0  0
 11 12  1  0  0  0
 12  8  1  0  0  0
  8  1  1  0  0  0
  1  2  2  0  0  0
  2  3  1  0  0  0
  3  4  2  0  0  0
  4  5  1  0  0  0
  4  6  1  0  0  0
  6 22  1  0  0  0
 22 24  1  0  0  0
 24 25  2  0  0  0
 25 26  1  0  0  0
 26 27  2  0  0  0
 27 28  1  0  0  0
 28 29  1  0  0  0
 29 30  1  0  0  0
 29 31  1  0  0  0
 29 32  1  0  0  0
 32 33  2  0  0  0
 32 34  1  0  0  0
 34 35  1  0  0  0
 35 36  2  0  0  0
  6  7  2  0  0  0
 12 13  2  0  0  0
 13 14  1  0  0  0
 14 18  1  0  0  0
 18 19  1  0  0  0
 14 15  2  0  0  0
 15 20  1  0  0  0
 20 21  1  0  0  0
 15 10  1  0  0  0
  7  1  1  0  0  0
 36 24  1  0  0  0
 35 27  1  0  0  0
  8  9  1  0  0  0
 22 23  1  0  0  0
 34 37  1  0  0  0
M  END
> <minimizedAffinity>
-8.64746

> <CNNscore>
0.4200631380

> <CNNaffinity>
7.2787232399

> <CNN_VS>
3.0575232506

> <CNNaffinity_variance>
0.2634187043

$$$$
[H]c1nc(N([H])c2c([H])c(OC([H])([H])[H])c(OC([H])([H])[H])c(OC([H])([H])[H])c2[H])nc(N([H])c2nc3c(c([H])c2[H])OC(C([H])([H])[H])(C([H])([H])[H])C(=O)N3[H])c1F


 37 40  0  0  0  0  0  0  0  0999 V2000
  -85.1415   29.2867    2.0868 C   0  0  0  0  0  0  0  0  0  0  0  0
  -83.8622   28.8999    2.1578 N   0  0  0  0  0  0  0  0  0  0  0  0
  -82.8202   29.6010    1.7061 C   0  0  0  0  0  0  0  0  0  0  0  0
  -83.0495   30.8095    1.1222 C   0  0  0  0  0  0  0  0  0  0  0  0
  -82.0960   31.6118    0.6281 F   0  0  0  0  0  0  0  0  0  0  0  0
  -84.3703   31.2725    1.0169 C   0  0  0  0  0  0  0  0  0  0  0  0
  -85.3440   30.4948    1.5004 N   0  0  0  0  0  0  0  0  0  0  0  0
  -86.2592   28.5719    2.5529 N   0  0  0  0  0  0  0  0  0  0  0  0
  -86.3254   28.4792    3.6186 H   0  0  0  0  0  0  0  0  0  0  0  0
  -88.9311   26.3250    1.1980 C   0  0  0  0  0  0  0  0  0  0  0  0
  -87.9556   26.8621    2.0502 C   0  0  0  0  0  0  0  0  0  0  0  0
  -87.2640   27.9831    1.7631 C   0  0  0  0  0  0  0  0  0  0  0  0
  -87.5707   28.6104    0.5387 C   0  0  0  0  0  0  0  0  0  0  0  0
  -88.5184   28.1125   -0.3169 C   0  0  0  0  0  0  0  0  0  0  0  0
  -89.2112   26.9619    0.0023 C   0  0  0  0  0  0  0  0  0  0  0  0
  -90.1820   25.0848    2.8359 C   0  0  0  0  0  0  0  0  0  0  0  0
  -89.5963   25.1706    1.5645 O   0  0  0  0  0  0  0  0  0  0  0  0
  -88.7897   28.7498   -1.4989 O   0  0  0  0  0  0  0  0  0  0  0  0
  -87.7681   28.8804   -2.4653 C   0  0  0  0  0  0  0  0  0  0  0  0
  -90.1829   26.4171   -0.8346 O   0  0  0  0  0  0  0  0  0  0  0  0
  -91.5271   26.8469   -0.6641 C   0  0  0  0  0  0  0  0  0  0  0  0
  -84.6401   32.5255    0.4144 N   0  0  0  0  0  0  0  0  0  0  0  0
  -84.0145   33.3195    0.6061 H   0  0  0  0  0  0  0  0  0  0  0  0
  -85.7648   32.6550   -0.4372 C   0  0  0  0  0  0  0  0  0  0  0  0
  -87.0077   32.1231   -0.0630 C   0  0  0  0  0  0  0  0  0  0  0  0
  -88.0914   32.2562   -0.8997 C   0  0  0  0  0  0  0  0  0  0  0  0
  -87.9801   32.9064   -2.1073 C   0  0  0  0  0  0  0  0  0  0  0  0
  -89.0522   33.0586   -2.9752 O   0  0  0  0  0  0  0  0  0  0  0  0
  -88.8719   33.3014   -4.3620 C   0  0  0  0  0  0  0  0  0  0  0  0
  -90.0976   33.9460   -4.9435 C   0  0  0  0  0  0  0  0  0  0  0  0
  -88.5506   32.0132   -5.0727 C   0  0  0  0  0  0  0  0  0  0  0  0
  -87.7304   34.2432   -4.5728 C   0  0  0  0  0  0  0  0  0  0  0  0
  -87.7767   35.1226   -5.4885 O   0  0  0  0  0  0  0  0  0  0  0  0
  -86.6150   34.1057   -3.7136 N   0  0  0  0  0  0  0  0  0  0  0  0
  -86.7409   33.4319   -2.4707 C   0  0  0  0  0  0  0  0  0  0  0  0
  -85.7123   33.2770   -1.6210 N   0  0  0  0  0  0  0  0  0  0  0  0
  -85.7043   34.5048   -4.0062 H   0  0  0  0  0  0  0  0  0  0  0  0
 16 17  1  0  0  0
 17 10  1  0  0  0
 10 11  2  0  0  0
 11 12  1  0  0  0
 12  8  1  0  0  0
  8  1  1  0  0  0
  1  2  2  0  0  0
  2  3  1  0  0  0
  3  4  2  0  0  0
  4  5  1  0  0  0
  4  6  1  0  0  0
  6 22  1  0  0  0
 22 24  1  0  0  0
 24 25  2  0  0  0
 25 26  1  0  0  0
 26 27  2  0  0  0
 27 28  1  0  0  0
 28 29  1  0  0  0
 29 30  1  0  0  0
 29 31  1  0  0  0
 29 32  1  0  0  0
 32 33  2  0  0  0
 32 34  1  0  0  0
 34 35  1  0  0  0
 35 36  2  0  0  0
  6  7  2  0  0  0
 12 13  2  0  0  0
 13 14  1  0  0  0
 14 18  1  0  0  0
 18 19  1  0  0  0
 14 15  2  0  0  0
 15 20  1  0  0  0
 20 21  1  0  0  0
 15 10  1  0  0  0
  7  1  1  0  0  0
 36 24  1  0  0  0
 35 27  1  0  0  0
  8  9  1  0  0  0
 22 23  1  0  0  0
 34 37  1  0  0  0
M  END
> <minimizedAffinity>
-9.04159

> <CNNscore>
0.3961588740

> <CNNaffinity>
7.3956580162

> <CNN_VS>
2.9298555851

> <CNNaffinity_variance>
0.2291478664

$$$$
[H]c1nc(N([H])c2c([H])c(OC([H])([H])[H])c(OC([H])([H])[H])c(OC([H])([H])[H])c2[H])nc(N([H])c2nc3c(c([H])c2[H])OC(C([H])([H])[H])(C([H])([H])[H])C(=O)N3[H])c1F


 37 40  0  0  0  0  0  0  0  0999 V2000
  -85.5125   27.4609    2.1013 C   0  0  0  0  0  0  0  0  0  0  0  0
  -84.2550   27.0695    2.3393 N   0  0  0  0  0  0  0  0  0  0  0  0
  -83.1897   27.8734    2.3594 C   0  0  0  0  0  0  0  0  0  0  0  0
  -83.3691   29.2020    2.1219 C   0  0  0  0  0  0  0  0  0  0  0  0
  -82.3879   30.1153    2.1127 F   0  0  0  0  0  0  0  0  0  0  0  0
  -84.6649   29.6765    1.8652 C   0  0  0  0  0  0  0  0  0  0  0  0
  -85.6653   28.7899    1.8675 N   0  0  0  0  0  0  0  0  0  0  0  0
  -86.6536   26.6397    2.0736 N   0  0  0  0  0  0  0  0  0  0  0  0
  -86.5672   25.7253    2.6259 H   0  0  0  0  0  0  0  0  0  0  0  0
  -89.3114   27.0939   -0.5252 C   0  0  0  0  0  0  0  0  0  0  0  0
  -88.0820   26.7871    0.0757 C   0  0  0  0  0  0  0  0  0  0  0  0
  -87.8599   26.9068    1.3999 C   0  0  0  0  0  0  0  0  0  0  0  0
  -88.9434   27.3642    2.1766 C   0  0  0  0  0  0  0  0  0  0  0  0
  -90.1580   27.6724    1.6217 C   0  0  0  0  0  0  0  0  0  0  0  0
  -90.3573   27.5411    0.2620 C   0  0  0  0  0  0  0  0  0  0  0  0
  -90.0557   25.7819   -2.3987 C   0  0  0  0  0  0  0  0  0  0  0  0
  -89.4591   26.9452   -1.8910 O   0  0  0  0  0  0  0  0  0  0  0  0
  -91.1885   28.1143    2.4087 O   0  0  0  0  0  0  0  0  0  0  0  0
  -90.9735   28.2972    3.7925 C   0  0  0  0  0  0  0  0  0  0  0  0
  -91.5732   27.8421   -0.3484 O   0  0  0  0  0  0  0  0  0  0  0  0
  -91.7457   29.1478   -0.8834 C   0  0  0  0  0  0  0  0  0  0  0  0
  -84.8829   31.0532    1.6146 N   0  0  0  0  0  0  0  0  0  0  0  0
  -84.5315   31.7476    2.2876 H   0  0  0  0  0  0  0  0  0  0  0  0
  -85.5796   31.4407    0.4435 C   0  0  0  0  0  0  0  0  0  0  0  0
  -85.3186   32.6771   -0.1654 C   0  0  0  0  0  0  0  0  0  0  0  0
  -86.0025   33.0406   -1.3022 C   0  0  0  0  0  0  0  0  0  0  0  0
  -86.9459   32.2083   -1.8595 C   0  0  0  0  0  0  0  0  0  0  0  0
  -87.6540   32.5432   -3.0050 O   0  0  0  0  0  0  0  0  0  0  0  0
  -88.9005   31.9439   -3.3240 C   0  0  0  0  0  0  0  0  0  0  0  0
  -89.1720   32.0547   -4.7971 C   0  0  0  0  0  0  0  0  0  0  0  0
  -90.0011   32.5871   -2.5223 C   0  0  0  0  0  0  0  0  0  0  0  0
  -88.8708   30.4885   -2.9844 C   0  0  0  0  0  0  0  0  0  0  0  0
  -89.4557   29.6383   -3.7253 O   0  0  0  0  0  0  0  0  0  0  0  0
  -88.1689   30.1144   -1.8145 N   0  0  0  0  0  0  0  0  0  0  0  0
  -87.1985   30.9814   -1.2475 C   0  0  0  0  0  0  0  0  0  0  0  0
  -86.5059   30.6706   -0.1394 N   0  0  0  0  0  0  0  0  0  0  0  0
  -88.3746   29.1972   -1.3779 H   0  0  0  0  0  0  0  0  0  0  0  0
 16 17  1  0  0  0
 17 10  1  0  0  0
 10 11  2  0  0  0
 11 12  1  0  0  0
 12  8  1  0  0  0
  8  1  1  0  0  0
  1  2  2  0  0  0
  2  3  1  0  0  0
  3  4  2  0  0  0
  4  5  1  0  0  0
  4  6  1  0  0  0
  6 22  1  0  0  0
 22 24  1  0  0  0
 24 25  2  0  0  0
 25 26  1  0  0  0
 26 27  2  0  0  0
 27 28  1  0  0  0
 28 29  1  0  0  0
 29 30  1  0  0  0
 29 31  1  0  0  0
 29 32  1  0  0  0
 32 33  2  0  0  0
 32 34  1  0  0  0
 34 35  1  0  0  0
 35 36  2  0  0  0
  6  7  2  0  0  0
 12 13  2  0  0  0
 13 14  1  0  0  0
 14 18  1  0  0  0
 18 19  1  0  0  0
 14 15  2  0  0  0
 15 20  1  0  0  0
 20 21  1  0  0  0
 15 10  1  0  0  0
  7  1  1  0  0  0
 36 24  1  0  0  0
 35 27  1  0  0  0
  8  9  1  0  0  0
 22 23  1  0  0  0
 34 37  1  0  0  0
M  END
> <minimizedAffinity>
-8.84709

> <CNNscore>
0.3905600905

> <CNNaffinity>
7.1504135132

> <CNN_VS>
2.7926661968

> <CNNaffinity_variance>
0.1691534221

$$$$
[H]c1nc(N([H])c2c([H])c(OC([H])([H])[H])c(OC([H])([H])[H])c(OC([H])([H])[H])c2[H])nc(N([H])c2nc3c(c([H])c2[H])OC(C([H])([H])[H])(C([H])([H])[H])C(=O)N3[H])c1F


 37 40  0  0  0  0  0  0  0  0999 V2000
  -85.1053   29.1503    1.6356 C   0  0  0  0  0  0  0  0  0  0  0  0
  -83.8387   28.8364    1.9333 N   0  0  0  0  0  0  0  0  0  0  0  0
  -82.7834   29.6303    1.7399 C   0  0  0  0  0  0  0  0  0  0  0  0
  -82.9838   30.8631    1.1978 C   0  0  0  0  0  0  0  0  0  0  0  0
  -82.0144   31.7557    0.9518 F   0  0  0  0  0  0  0  0  0  0  0  0
  -84.2899   31.2530    0.8631 C   0  0  0  0  0  0  0  0  0  0  0  0
  -85.2790   30.3846    1.0965 N   0  0  0  0  0  0  0  0  0  0  0  0
  -86.2363   28.3372    1.8274 N   0  0  0  0  0  0  0  0  0  0  0  0
  -86.4782   28.1317    2.8510 H   0  0  0  0  0  0  0  0  0  0  0  0
  -88.0864   27.6804   -1.3616 C   0  0  0  0  0  0  0  0  0  0  0  0
  -87.2403   28.2809   -0.4182 C   0  0  0  0  0  0  0  0  0  0  0  0
  -87.0493   27.7844    0.8205 C   0  0  0  0  0  0  0  0  0  0  0  0
  -87.7530   26.6048    1.1365 C   0  0  0  0  0  0  0  0  0  0  0  0
  -88.5873   25.9922    0.2383 C   0  0  0  0  0  0  0  0  0  0  0  0
  -88.7648   26.5231   -1.0236 C   0  0  0  0  0  0  0  0  0  0  0  0
  -89.0306   29.3933   -2.7615 C   0  0  0  0  0  0  0  0  0  0  0  0
  -88.2293   28.2521   -2.6114 O   0  0  0  0  0  0  0  0  0  0  0  0
  -89.2550   24.8462    0.5812 O   0  0  0  0  0  0  0  0  0  0  0  0
  -90.3205   24.9161    1.5056 C   0  0  0  0  0  0  0  0  0  0  0  0
  -89.6020   25.9372   -1.9708 O   0  0  0  0  0  0  0  0  0  0  0  0
  -90.9777   26.2951   -1.9574 C   0  0  0  0  0  0  0  0  0  0  0  0
  -84.5297   32.5291    0.2977 N   0  0  0  0  0  0  0  0  0  0  0  0
  -83.8686   33.2943    0.4873 H   0  0  0  0  0  0  0  0  0  0  0  0
  -85.6742   32.7210   -0.5150 C   0  0  0  0  0  0  0  0  0  0  0  0
  -86.9290   32.2487   -0.1026 C   0  0  0  0  0  0  0  0  0  0  0  0
  -88.0319   32.4420   -0.9017 C   0  0  0  0  0  0  0  0  0  0  0  0
  -87.9283   33.0953   -2.1082 C   0  0  0  0  0  0  0  0  0  0  0  0
  -89.0197   33.3074   -2.9388 O   0  0  0  0  0  0  0  0  0  0  0  0
  -88.8736   33.5518   -4.3293 C   0  0  0  0  0  0  0  0  0  0  0  0
  -90.0842   34.2611   -4.8654 C   0  0  0  0  0  0  0  0  0  0  0  0
  -88.6408   32.2548   -5.0583 C   0  0  0  0  0  0  0  0  0  0  0  0
  -87.6941   34.4373   -4.5725 C   0  0  0  0  0  0  0  0  0  0  0  0
  -87.7268   35.3251   -5.4806 O   0  0  0  0  0  0  0  0  0  0  0  0
  -86.5590   34.2378   -3.7520 N   0  0  0  0  0  0  0  0  0  0  0  0
  -86.6772   33.5614   -2.5098 C   0  0  0  0  0  0  0  0  0  0  0  0
  -85.6299   33.3489   -1.6960 N   0  0  0  0  0  0  0  0  0  0  0  0
  -85.6398   34.5935   -4.0725 H   0  0  0  0  0  0  0  0  0  0  0  0
 16 17  1  0  0  0
 17 10  1  0  0  0
 10 11  2  0  0  0
 11 12  1  0  0  0
 12  8  1  0  0  0
  8  1  1  0  0  0
  1  2  2  0  0  0
  2  3  1  0  0  0
  3  4  2  0  0  0
  4  5  1  0  0  0
  4  6  1  0  0  0
  6 22  1  0  0  0
 22 24  1  0  0  0
 24 25  2  0  0  0
 25 26  1  0  0  0
 26 27  2  0  0  0
 27 28  1  0  0  0
 28 29  1  0  0  0
 29 30  1  0  0  0
 29 31  1  0  0  0
 29 32  1  0  0  0
 32 33  2  0  0  0
 32 34  1  0  0  0
 34 35  1  0  0  0
 35 36  2  0  0  0
  6  7  2  0  0  0
 12 13  2  0  0  0
 13 14  1  0  0  0
 14 18  1  0  0  0
 18 19  1  0  0  0
 14 15  2  0  0  0
 15 20  1  0  0  0
 20 21  1  0  0  0
 15 10  1  0  0  0
  7  1  1  0  0  0
 36 24  1  0  0  0
 35 27  1  0  0  0
  8  9  1  0  0  0
 22 23  1  0  0  0
 34 37  1  0  0  0
M  END
> <minimizedAffinity>
-9.03414

> <CNNscore>
0.3787387908

> <CNNaffinity>
7.3652825356

> <CNN_VS>
2.7895181179

> <CNNaffinity_variance>
0.1866913885

$$$$
[H]c1nc(N([H])c2c([H])c(OC([H])([H])[H])c(OC([H])([H])[H])c(OC([H])([H])[H])c2[H])nc(N([H])c2nc3c(c([H])c2[H])OC(C([H])([H])[H])(C([H])([H])[H])C(=O)N3[H])c1F


 37 40  0  0  0  0  0  0  0  0999 V2000
  -85.3534   27.5513    2.0635 C   0  0  0  0  0  0  0  0  0  0  0  0
  -84.1361   27.1276    2.4239 N   0  0  0  0  0  0  0  0  0  0  0  0
  -83.0325   27.8780    2.4358 C   0  0  0  0  0  0  0  0  0  0  0  0
  -83.1248   29.1821    2.0554 C   0  0  0  0  0  0  0  0  0  0  0  0
  -82.0972   30.0421    2.0217 F   0  0  0  0  0  0  0  0  0  0  0  0
  -84.3745   29.6882    1.6656 C   0  0  0  0  0  0  0  0  0  0  0  0
  -85.4195   28.8549    1.6885 N   0  0  0  0  0  0  0  0  0  0  0  0
  -86.5331   26.7865    2.0406 N   0  0  0  0  0  0  0  0  0  0  0  0
  -86.4724   25.8447    2.5485 H   0  0  0  0  0  0  0  0  0  0  0  0
  -90.0778   27.7818    1.3562 C   0  0  0  0  0  0  0  0  0  0  0  0
  -88.8997   27.4596    2.0453 C   0  0  0  0  0  0  0  0  0  0  0  0
  -87.7472   27.1402    1.4232 C   0  0  0  0  0  0  0  0  0  0  0  0
  -87.7755   27.1445    0.0140 C   0  0  0  0  0  0  0  0  0  0  0  0
  -88.9093   27.4549   -0.6903 C   0  0  0  0  0  0  0  0  0  0  0  0
  -90.0763   27.7777   -0.0272 C   0  0  0  0  0  0  0  0  0  0  0  0
  -91.1070   28.5389    3.3941 C   0  0  0  0  0  0  0  0  0  0  0  0
  -91.2195   28.0979    2.0676 O   0  0  0  0  0  0  0  0  0  0  0  0
  -88.8989   27.4487   -2.0602 O   0  0  0  0  0  0  0  0  0  0  0  0
  -88.1937   28.4582   -2.7517 C   0  0  0  0  0  0  0  0  0  0  0  0
  -91.2538   28.0999   -0.6987 O   0  0  0  0  0  0  0  0  0  0  0  0
  -91.4533   29.4538   -1.0832 C   0  0  0  0  0  0  0  0  0  0  0  0
  -84.5019   31.0406    1.2648 N   0  0  0  0  0  0  0  0  0  0  0  0
  -83.8447   31.7387    1.6381 H   0  0  0  0  0  0  0  0  0  0  0  0
  -85.5312   31.3992    0.3598 C   0  0  0  0  0  0  0  0  0  0  0  0
  -86.7902   30.7849    0.4319 C   0  0  0  0  0  0  0  0  0  0  0  0
  -87.7806   31.1428   -0.4532 C   0  0  0  0  0  0  0  0  0  0  0  0
  -87.5592   32.1000   -1.4167 C   0  0  0  0  0  0  0  0  0  0  0  0
  -88.5352   32.4848   -2.3251 O   0  0  0  0  0  0  0  0  0  0  0  0
  -88.2133   33.0995   -3.5633 C   0  0  0  0  0  0  0  0  0  0  0  0
  -89.3882   33.8791   -4.0809 C   0  0  0  0  0  0  0  0  0  0  0  0
  -87.7772   32.0563   -4.5579 C   0  0  0  0  0  0  0  0  0  0  0  0
  -87.0855   34.0630   -3.3789 C   0  0  0  0  0  0  0  0  0  0  0  0
  -87.0595   35.1602   -4.0187 O   0  0  0  0  0  0  0  0  0  0  0  0
  -86.0660   33.6946   -2.4699 N   0  0  0  0  0  0  0  0  0  0  0  0
  -86.3049   32.7051   -1.4807 C   0  0  0  0  0  0  0  0  0  0  0  0
  -85.3700   32.3227   -0.5953 N   0  0  0  0  0  0  0  0  0  0  0  0
  -85.1418   34.1588   -2.5378 H   0  0  0  0  0  0  0  0  0  0  0  0
 16 17  1  0  0  0
 17 10  1  0  0  0
 10 11  2  0  0  0
 11 12  1  0  0  0
 12  8  1  0  0  0
  8  1  1  0  0  0
  1  2  2  0  0  0
  2  3  1  0  0  0
  3  4  2  0  0  0
  4  5  1  0  0  0
  4  6  1  0  0  0
  6 22  1  0  0  0
 22 24  1  0  0  0
 24 25  2  0  0  0
 25 26  1  0  0  0
 26 27  2  0  0  0
 27 28  1  0  0  0
 28 29  1  0  0  0
 29 30  1  0  0  0
 29 31  1  0  0  0
 29 32  1  0  0  0
 32 33  2  0  0  0
 32 34  1  0  0  0
 34 35  1  0  0  0
 35 36  2  0  0  0
  6  7  2  0  0  0
 12 13  2  0  0  0
 13 14  1  0  0  0
 14 18  1  0  0  0
 18 19  1  0  0  0
 14 15  2  0  0  0
 15 20  1  0  0  0
 20 21  1  0  0  0
 15 10  1  0  0  0
  7  1  1  0  0  0
 36 24  1  0  0  0
 35 27  1  0  0  0
  8  9  1  0  0  0
 22 23  1  0  0  0
 34 37  1  0  0  0
M  END
> <minimizedAffinity>
-9.27695

> <CNNscore>
0.3602396846

> <CNNaffinity>
7.2743477821

> <CNN_VS>
2.6205086708

> <CNNaffinity_variance>
0.1357688606

$$$$
[H]c1nc(Oc2c([H])c([H])c(N([H])C(=O)N([H])c3c([H])c([H])c(C([H])([H])N4C([H])([H])C([H])([H])N(C([H])([H])[H])C([H])([H])C4([H])[H])c(C(F)(F)F)c3[H])c([H])c2[H])c([H])c(N([H])C([H])([H])[H])n1


 40 43  0  0  0  0  0  0  0  0999 V2000
  -89.3426   24.3703   -0.7748 N   0  0  0  0  0  0  0  0  0  0  0  0
  -88.7986   25.5806   -0.4011 C   0  0  0  0  0  0  0  0  0  0  0  0
  -89.3646   26.6673   -0.5235 O   0  0  0  0  0  0  0  0  0  0  0  0
  -87.4507   25.5855    0.1846 N   0  0  0  0  0  0  0  0  0  0  0  0
  -88.8342   23.4555   -0.6511 H   0  0  0  0  0  0  0  0  0  0  0  0
  -86.8717   24.7892    0.3529 H   0  0  0  0  0  0  0  0  0  0  0  0
  -93.2829   24.5005   -2.2914 C   0  0  0  0  0  0  0  0  0  0  0  0
  -92.2243   24.9379   -3.0366 C   0  0  0  0  0  0  0  0  0  0  0  0
  -90.9059   24.8937   -2.5744 C   0  0  0  0  0  0  0  0  0  0  0  0
  -90.6609   24.4050   -1.3511 C   0  0  0  0  0  0  0  0  0  0  0  0
  -91.7369   23.9404   -0.5744 C   0  0  0  0  0  0  0  0  0  0  0  0
  -93.0310   23.9850   -1.0371 C   0  0  0  0  0  0  0  0  0  0  0  0
  -94.1221   23.5497   -0.1651 C   0  0  0  0  0  0  0  0  0  0  0  0
  -93.5330   23.1473    1.0555 F   0  0  0  0  0  0  0  0  0  0  0  0
  -94.9392   24.6289    0.2051 F   0  0  0  0  0  0  0  0  0  0  0  0
  -94.8334   22.4598   -0.5465 F   0  0  0  0  0  0  0  0  0  0  0  0
  -94.7139   24.5082   -2.7500 C   0  0  0  0  0  0  0  0  0  0  0  0
  -96.1569   26.8378   -7.4750 C   0  0  0  0  0  0  0  0  0  0  0  0
  -96.1832   25.8253   -6.4726 N   0  0  0  0  0  0  0  0  0  0  0  0
  -94.9829   25.0554   -6.3960 C   0  0  0  0  0  0  0  0  0  0  0  0
  -95.1742   24.2112   -5.0962 C   0  0  0  0  0  0  0  0  0  0  0  0
  -94.8070   25.0702   -4.0341 N   0  0  0  0  0  0  0  0  0  0  0  0
  -95.4921   26.2994   -4.1424 C   0  0  0  0  0  0  0  0  0  0  0  0
  -96.6368   26.1889   -5.1787 C   0  0  0  0  0  0  0  0  0  0  0  0
  -87.0216   26.9291    0.4786 C   0  0  0  0  0  0  0  0  0  0  0  0
  -86.8462   27.8757   -0.4749 C   0  0  0  0  0  0  0  0  0  0  0  0
  -86.3653   29.1209   -0.0781 C   0  0  0  0  0  0  0  0  0  0  0  0
  -86.0698   29.4144    1.2182 C   0  0  0  0  0  0  0  0  0  0  0  0
  -86.2648   28.4147    2.1829 C   0  0  0  0  0  0  0  0  0  0  0  0
  -86.7303   27.1962    1.8251 C   0  0  0  0  0  0  0  0  0  0  0  0
  -85.5792   30.6453    1.6679 O   0  0  0  0  0  0  0  0  0  0  0  0
  -84.8681   31.4537    0.8134 C   0  0  0  0  0  0  0  0  0  0  0  0
  -85.5653   32.2633   -0.1228 C   0  0  0  0  0  0  0  0  0  0  0  0
  -84.8664   33.0686   -0.9913 C   0  0  0  0  0  0  0  0  0  0  0  0
  -83.5141   33.0607   -0.9144 N   0  0  0  0  0  0  0  0  0  0  0  0
  -82.8474   32.3006   -0.0289 C   0  0  0  0  0  0  0  0  0  0  0  0
  -83.5420   31.5211    0.8081 N   0  0  0  0  0  0  0  0  0  0  0  0
  -85.5192   33.8431   -1.9972 N   0  0  0  0  0  0  0  0  0  0  0  0
  -86.9292   33.9181   -2.2007 C   0  0  0  0  0  0  0  0  0  0  0  0
  -84.9041   34.3986   -2.6611 H   0  0  0  0  0  0  0  0  0  0  0  0
 18 19  1  0  0  0
 19 20  1  0  0  0
 20 21  1  0  0  0
 21 22  1  0  0  0
 22 17  1  0  0  0
 17  7  1  0  0  0
  7  8  2  0  0  0
  8  9  1  0  0  0
  9 10  2  0  0  0
 10  1  1  0  0  0
  1  2  1  0  0  0
  2  3  2  0  0  0
  2  4  1  0  0  0
  4 25  1  0  0  0
 25 26  2  0  0  0
 26 27  1  0  0  0
 27 28  2  0  0  0
 28 31  1  0  0  0
 31 32  1  0  0  0
 32 33  2  0  0  0
 33 34  1  0  0  0
 34 38  1  0  0  0
 38 39  1  0  0  0
 34 35  2  0  0  0
 35 36  1  0  0  0
 36 37  2  0  0  0
 28 29  1  0  0  0
 29 30  2  0  0  0
 10 11  1  0  0  0
 11 12  2  0  0  0
 12 13  1  0  0  0
 13 14  1  0  0  0
 13 15  1  0  0  0
 13 16  1  0  0  0
 22 23  1  0  0  0
 23 24  1  0  0  0
 24 19  1  0  0  0
 12  7  1  0  0  0
 30 25  1  0  0  0
 37 32  1  0  0  0
  1  5  1  0  0  0
  4  6  1  0  0  0
 38 40  1  0  0  0
M  END
> <minimizedAffinity>
-7.67109

> <CNNscore>
0.4178571403

> <CNNaffinity>
6.5261015892

> <CNN_VS>
2.7269780636

> <CNNaffinity_variance>
0.1316126585

$$$$
[H]c1nc(Oc2c([H])c([H])c(N([H])C(=O)N([H])c3c([H])c([H])c(C([H])([H])N4C([H])([H])C([H])([H])N(C([H])([H])[H])C([H])([H])C4([H])[H])c(C(F)(F)F)c3[H])c([H])c2[H])c([H])c(N([H])C([H])([H])[H])n1


 40 43  0  0  0  0  0  0  0  0999 V2000
  -89.4920   24.8022   -1.9619 N   0  0  0  0  0  0  0  0  0  0  0  0
  -88.9559   25.8831   -1.2949 C   0  0  0  0  0  0  0  0  0  0  0  0
  -89.5939   26.8803   -0.9562 O   0  0  0  0  0  0  0  0  0  0  0  0
  -87.5250   25.8533   -0.9605 N   0  0  0  0  0  0  0  0  0  0  0  0
  -88.9198   23.9598   -2.2329 H   0  0  0  0  0  0  0  0  0  0  0  0
  -86.8818   25.1161   -1.1614 H   0  0  0  0  0  0  0  0  0  0  0  0
  -93.5606   25.0589   -3.0683 C   0  0  0  0  0  0  0  0  0  0  0  0
  -93.1317   24.1285   -2.1639 C   0  0  0  0  0  0  0  0  0  0  0  0
  -91.7971   24.0260   -1.7612 C   0  0  0  0  0  0  0  0  0  0  0  0
  -90.8942   24.8696   -2.2790 C   0  0  0  0  0  0  0  0  0  0  0  0
  -91.3194   25.8404   -3.2030 C   0  0  0  0  0  0  0  0  0  0  0  0
  -92.6347   25.9366   -3.5924 C   0  0  0  0  0  0  0  0  0  0  0  0
  -93.0148   26.9212   -4.6055 C   0  0  0  0  0  0  0  0  0  0  0  0
  -91.9193   27.8036   -4.7480 F   0  0  0  0  0  0  0  0  0  0  0  0
  -93.1268   26.3298   -5.8732 F   0  0  0  0  0  0  0  0  0  0  0  0
  -94.0507   27.7482   -4.3191 F   0  0  0  0  0  0  0  0  0  0  0  0
  -94.9851   25.2225   -3.5179 C   0  0  0  0  0  0  0  0  0  0  0  0
  -97.2827   21.7486   -7.0517 C   0  0  0  0  0  0  0  0  0  0  0  0
  -97.2202   22.5245   -5.8581 N   0  0  0  0  0  0  0  0  0  0  0  0
  -96.2692   22.0462   -4.9061 C   0  0  0  0  0  0  0  0  0  0  0  0
  -96.2247   23.1810   -3.8342 C   0  0  0  0  0  0  0  0  0  0  0  0
  -95.3508   24.1604   -4.3613 N   0  0  0  0  0  0  0  0  0  0  0  0
  -95.7325   24.4960   -5.6780 C   0  0  0  0  0  0  0  0  0  0  0  0
  -97.1410   23.9345   -5.9906 C   0  0  0  0  0  0  0  0  0  0  0  0
  -87.1238   27.0720   -0.3050 C   0  0  0  0  0  0  0  0  0  0  0  0
  -87.2541   27.2730    1.0286 C   0  0  0  0  0  0  0  0  0  0  0  0
  -86.8922   28.5166    1.5399 C   0  0  0  0  0  0  0  0  0  0  0  0
  -86.4181   29.5231    0.7550 C   0  0  0  0  0  0  0  0  0  0  0  0
  -86.2914   29.2837   -0.6214 C   0  0  0  0  0  0  0  0  0  0  0  0
  -86.6363   28.0851   -1.1448 C   0  0  0  0  0  0  0  0  0  0  0  0
  -86.0467   30.7906    1.2170 O   0  0  0  0  0  0  0  0  0  0  0  0
  -85.4003   31.6648    0.3760 C   0  0  0  0  0  0  0  0  0  0  0  0
  -86.1641   32.5030   -0.4797 C   0  0  0  0  0  0  0  0  0  0  0  0
  -85.5306   33.3745   -1.3343 C   0  0  0  0  0  0  0  0  0  0  0  0
  -84.1764   33.4024   -1.3222 N   0  0  0  0  0  0  0  0  0  0  0  0
  -83.4469   32.6155   -0.5130 C   0  0  0  0  0  0  0  0  0  0  0  0
  -84.0783   31.7716    0.3115 N   0  0  0  0  0  0  0  0  0  0  0  0
  -86.2525   34.1827   -2.2634 N   0  0  0  0  0  0  0  0  0  0  0  0
  -86.9001   33.7113   -3.4439 C   0  0  0  0  0  0  0  0  0  0  0  0
  -86.2991   35.2258   -2.0695 H   0  0  0  0  0  0  0  0  0  0  0  0
 18 19  1  0  0  0
 19 20  1  0  0  0
 20 21  1  0  0  0
 21 22  1  0  0  0
 22 17  1  0  0  0
 17  7  1  0  0  0
  7  8  2  0  0  0
  8  9  1  0  0  0
  9 10  2  0  0  0
 10  1  1  0  0  0
  1  2  1  0  0  0
  2  3  2  0  0  0
  2  4  1  0  0  0
  4 25  1  0  0  0
 25 26  2  0  0  0
 26 27  1  0  0  0
 27 28  2  0  0  0
 28 31  1  0  0  0
 31 32  1  0  0  0
 32 33  2  0  0  0
 33 34  1  0  0  0
 34 38  1  0  0  0
 38 39  1  0  0  0
 34 35  2  0  0  0
 35 36  1  0  0  0
 36 37  2  0  0  0
 28 29  1  0  0  0
 29 30  2  0  0  0
 10 11  1  0  0  0
 11 12  2  0  0  0
 12 13  1  0  0  0
 13 14  1  0  0  0
 13 15  1  0  0  0
 13 16  1  0  0  0
 22 23  1  0  0  0
 23 24  1  0  0  0
 24 19  1  0  0  0
 12  7  1  0  0  0
 30 25  1  0  0  0
 37 32  1  0  0  0
  1  5  1  0  0  0
  4  6  1  0  0  0
 38 40  1  0  0  0
M  END
> <minimizedAffinity>
-7.17523

> <CNNscore>
0.3416717350

> <CNNaffinity>
6.2152614594

> <CNN_VS>
2.1235792637

> <CNNaffinity_variance>
0.2315549552

$$$$
[H]c1nc(Oc2c([H])c([H])c(N([H])C(=O)N([H])c3c([H])c([H])c(C([H])([H])N4C([H])([H])C([H])([H])N(C([H])([H])[H])C([H])([H])C4([H])[H])c(C(F)(F)F)c3[H])c([H])c2[H])c([H])c(N([H])C([H])([H])[H])n1


 40 43  0  0  0  0  0  0  0  0999 V2000
  -85.9417   33.3569   -1.4322 N   0  0  0  0  0  0  0  0  0  0  0  0
  -86.9548   33.6836   -2.3081 C   0  0  0  0  0  0  0  0  0  0  0  0
  -87.9354   32.9746   -2.5363 O   0  0  0  0  0  0  0  0  0  0  0  0
  -86.8684   34.9642   -3.0242 N   0  0  0  0  0  0  0  0  0  0  0  0
  -85.1175   33.9891   -1.2540 H   0  0  0  0  0  0  0  0  0  0  0  0
  -86.1426   35.6453   -2.9407 H   0  0  0  0  0  0  0  0  0  0  0  0
  -86.2505   29.7366    0.7221 C   0  0  0  0  0  0  0  0  0  0  0  0
  -86.9500   29.9318   -0.4354 C   0  0  0  0  0  0  0  0  0  0  0  0
  -86.8591   31.1091   -1.1834 C   0  0  0  0  0  0  0  0  0  0  0  0
  -86.0564   32.0924   -0.7546 C   0  0  0  0  0  0  0  0  0  0  0  0
  -85.3207   31.9049    0.4289 C   0  0  0  0  0  0  0  0  0  0  0  0
  -85.4137   30.7427    1.1579 C   0  0  0  0  0  0  0  0  0  0  0  0
  -84.6777   30.6223    2.4166 C   0  0  0  0  0  0  0  0  0  0  0  0
  -83.5178   29.8627    2.1399 F   0  0  0  0  0  0  0  0  0  0  0  0
  -84.1669   31.8630    2.8281 F   0  0  0  0  0  0  0  0  0  0  0  0
  -85.2697   29.9377    3.4266 F   0  0  0  0  0  0  0  0  0  0  0  0
  -86.2984   28.4837    1.5504 C   0  0  0  0  0  0  0  0  0  0  0  0
  -90.6620   25.2005    1.4321 C   0  0  0  0  0  0  0  0  0  0  0  0
  -89.2690   25.4967    1.4804 N   0  0  0  0  0  0  0  0  0  0  0  0
  -88.7489   26.0334    0.2635 C   0  0  0  0  0  0  0  0  0  0  0  0
  -87.3066   26.4879    0.6531 C   0  0  0  0  0  0  0  0  0  0  0  0
  -87.4643   27.7561    1.2594 N   0  0  0  0  0  0  0  0  0  0  0  0
  -88.4444   27.6932    2.2730 C   0  0  0  0  0  0  0  0  0  0  0  0
  -88.7862   26.2194    2.6014 C   0  0  0  0  0  0  0  0  0  0  0  0
  -87.9819   35.1275   -3.9237 C   0  0  0  0  0  0  0  0  0  0  0  0
  -87.9453   34.7478   -5.2239 C   0  0  0  0  0  0  0  0  0  0  0  0
  -89.0603   35.0159   -6.0140 C   0  0  0  0  0  0  0  0  0  0  0  0
  -90.1703   35.6382   -5.5299 C   0  0  0  0  0  0  0  0  0  0  0  0
  -90.1795   36.0165   -4.1790 C   0  0  0  0  0  0  0  0  0  0  0  0
  -89.1098   35.7688   -3.3890 C   0  0  0  0  0  0  0  0  0  0  0  0
  -91.3125   35.9358   -6.2814 O   0  0  0  0  0  0  0  0  0  0  0  0
  -91.2220   36.7822   -7.3606 C   0  0  0  0  0  0  0  0  0  0  0  0
  -92.1575   37.8426   -7.4957 C   0  0  0  0  0  0  0  0  0  0  0  0
  -92.0859   38.6905   -8.5761 C   0  0  0  0  0  0  0  0  0  0  0  0
  -91.1032   38.4788   -9.4840 N   0  0  0  0  0  0  0  0  0  0  0  0
  -90.2120   37.4802   -9.3613 C   0  0  0  0  0  0  0  0  0  0  0  0
  -90.2963   36.6629   -8.3052 N   0  0  0  0  0  0  0  0  0  0  0  0
  -93.0468   39.7235   -8.7928 N   0  0  0  0  0  0  0  0  0  0  0  0
  -94.1010   39.6869   -9.7533 C   0  0  0  0  0  0  0  0  0  0  0  0
  -92.9618   40.6010   -8.2007 H   0  0  0  0  0  0  0  0  0  0  0  0
 18 19  1  0  0  0
 19 20  1  0  0  0
 20 21  1  0  0  0
 21 22  1  0  0  0
 22 17  1  0  0  0
 17  7  1  0  0  0
  7  8  2  0  0  0
  8  9  1  0  0  0
  9 10  2  0  0  0
 10  1  1  0  0  0
  1  2  1  0  0  0
  2  3  2  0  0  0
  2  4  1  0  0  0
  4 25  1  0  0  0
 25 26  2  0  0  0
 26 27  1  0  0  0
 27 28  2  0  0  0
 28 31  1  0  0  0
 31 32  1  0  0  0
 32 33  2  0  0  0
 33 34  1  0  0  0
 34 38  1  0  0  0
 38 39  1  0  0  0
 34 35  2  0  0  0
 35 36  1  0  0  0
 36 37  2  0  0  0
 28 29  1  0  0  0
 29 30  2  0  0  0
 10 11  1  0  0  0
 11 12  2  0  0  0
 12 13  1  0  0  0
 13 14  1  0  0  0
 13 15  1  0  0  0
 13 16  1  0  0  0
 22 23  1  0  0  0
 23 24  1  0  0  0
 24 19  1  0  0  0
 12  7  1  0  0  0
 30 25  1  0  0  0
 37 32  1  0  0  0
  1  5  1  0  0  0
  4  6  1  0  0  0
 38 40  1  0  0  0
M  END
> <minimizedAffinity>
-8.11904

> <CNNscore>
0.1234648526

> <CNNaffinity>
6.2003660202

> <CNN_VS>
0.7655272484

> <CNNaffinity_variance>
0.1560052931

$$$$
[H]c1nc(Oc2c([H])c([H])c(N([H])C(=O)N([H])c3c([H])c([H])c(C([H])([H])N4C([H])([H])C([H])([H])N(C([H])([H])[H])C([H])([H])C4([H])[H])c(C(F)(F)F)c3[H])c([H])c2[H])c([H])c(N([H])C([H])([H])[H])n1


 40 43  0  0  0  0  0  0  0  0999 V2000
  -86.3596   34.3744   -2.1949 N   0  0  0  0  0  0  0  0  0  0  0  0
  -86.4358   33.1067   -1.6586 C   0  0  0  0  0  0  0  0  0  0  0  0
  -87.2426   32.2466   -2.0130 O   0  0  0  0  0  0  0  0  0  0  0  0
  -85.4939   32.7467   -0.5894 N   0  0  0  0  0  0  0  0  0  0  0  0
  -85.6527   35.0867   -1.8734 H   0  0  0  0  0  0  0  0  0  0  0  0
  -84.7818   33.3301   -0.2018 H   0  0  0  0  0  0  0  0  0  0  0  0
  -89.0799   35.4955   -5.2258 C   0  0  0  0  0  0  0  0  0  0  0  0
  -88.4402   34.2885   -5.2618 C   0  0  0  0  0  0  0  0  0  0  0  0
  -87.5476   33.8769   -4.2680 C   0  0  0  0  0  0  0  0  0  0  0  0
  -87.3023   34.6936   -3.2346 C   0  0  0  0  0  0  0  0  0  0  0  0
  -87.9598   35.9351   -3.1755 C   0  0  0  0  0  0  0  0  0  0  0  0
  -88.8385   36.3317   -4.1559 C   0  0  0  0  0  0  0  0  0  0  0  0
  -89.4471   37.6601   -4.0817 C   0  0  0  0  0  0  0  0  0  0  0  0
  -88.8038   38.3452   -3.0255 F   0  0  0  0  0  0  0  0  0  0  0  0
  -89.1305   38.4288   -5.2123 F   0  0  0  0  0  0  0  0  0  0  0  0
  -90.7602   37.7309   -3.7502 F   0  0  0  0  0  0  0  0  0  0  0  0
  -90.0618   35.9750   -6.2573 C   0  0  0  0  0  0  0  0  0  0  0  0
  -93.8629   32.1073   -5.6028 C   0  0  0  0  0  0  0  0  0  0  0  0
  -92.5963   32.6184   -6.0093 N   0  0  0  0  0  0  0  0  0  0  0  0
  -92.6603   33.4962   -7.1339 C   0  0  0  0  0  0  0  0  0  0  0  0
  -91.2185   34.0906   -7.2144 C   0  0  0  0  0  0  0  0  0  0  0  0
  -91.1941   35.1436   -6.2702 N   0  0  0  0  0  0  0  0  0  0  0  0
  -91.6626   34.6875   -5.0195 C   0  0  0  0  0  0  0  0  0  0  0  0
  -91.7422   33.1415   -5.0049 C   0  0  0  0  0  0  0  0  0  0  0  0
  -85.7373   31.4073   -0.1178 C   0  0  0  0  0  0  0  0  0  0  0  0
  -86.9806   30.8913    0.0374 C   0  0  0  0  0  0  0  0  0  0  0  0
  -87.0936   29.6068    0.5630 C   0  0  0  0  0  0  0  0  0  0  0  0
  -86.0111   28.8625    0.9210 C   0  0  0  0  0  0  0  0  0  0  0  0
  -84.7369   29.4226    0.7455 C   0  0  0  0  0  0  0  0  0  0  0  0
  -84.5983   30.6686    0.2376 C   0  0  0  0  0  0  0  0  0  0  0  0
  -86.0700   27.5718    1.4581 O   0  0  0  0  0  0  0  0  0  0  0  0
  -87.2002   26.8085    1.2867 C   0  0  0  0  0  0  0  0  0  0  0  0
  -87.4855   26.2625    0.0067 C   0  0  0  0  0  0  0  0  0  0  0  0
  -88.6185   25.5062   -0.1822 C   0  0  0  0  0  0  0  0  0  0  0  0
  -89.4308   25.3044    0.8828 N   0  0  0  0  0  0  0  0  0  0  0  0
  -89.1657   25.8143    2.0978 C   0  0  0  0  0  0  0  0  0  0  0  0
  -88.0602   26.5495    2.2647 N   0  0  0  0  0  0  0  0  0  0  0  0
  -88.9848   24.9988   -1.4651 N   0  0  0  0  0  0  0  0  0  0  0  0
  -90.0916   25.4439   -2.2475 C   0  0  0  0  0  0  0  0  0  0  0  0
  -88.3940   24.2125   -1.8657 H   0  0  0  0  0  0  0  0  0  0  0  0
 18 19  1  0  0  0
 19 20  1  0  0  0
 20 21  1  0  0  0
 21 22  1  0  0  0
 22 17  1  0  0  0
 17  7  1  0  0  0
  7  8  2  0  0  0
  8  9  1  0  0  0
  9 10  2  0  0  0
 10  1  1  0  0  0
  1  2  1  0  0  0
  2  3  2  0  0  0
  2  4  1  0  0  0
  4 25  1  0  0  0
 25 26  2  0  0  0
 26 27  1  0  0  0
 27 28  2  0  0  0
 28 31  1  0  0  0
 31 32  1  0  0  0
 32 33  2  0  0  0
 33 34  1  0  0  0
 34 38  1  0  0  0
 38 39  1  0  0  0
 34 35  2  0  0  0
 35 36  1  0  0  0
 36 37  2  0  0  0
 28 29  1  0  0  0
 29 30  2  0  0  0
 10 11  1  0  0  0
 11 12  2  0  0  0
 12 13  1  0  0  0
 13 14  1  0  0  0
 13 15  1  0  0  0
 13 16  1  0  0  0
 22 23  1  0  0  0
 23 24  1  0  0  0
 24 19  1  0  0  0
 12  7  1  0  0  0
 30 25  1  0  0  0
 37 32  1  0  0  0
  1  5  1  0  0  0
  4  6  1  0  0  0
 38 40  1  0  0  0
M  END
> <minimizedAffinity>
-8.04853

> <CNNscore>
0.1173218265

> <CNNaffinity>
6.2372350693

> <CNN_VS>
0.7317638397

> <CNNaffinity_variance>
0.1489447504

$$$$
[H]c1nc(Oc2c([H])c([H])c(N([H])C(=O)N([H])c3c([H])c([H])c(C([H])([H])N4C([H])([H])C([H])([H])N(C([H])([H])[H])C([H])([H])C4([H])[H])c(C(F)(F)F)c3[H])c([H])c2[H])c([H])c(N([H])C([H])([H])[H])n1


 40 43  0  0  0  0  0  0  0  0999 V2000
  -87.3228   25.9218    0.7360 N   0  0  0  0  0  0  0  0  0  0  0  0
  -88.4724   25.5148    0.0932 C   0  0  0  0  0  0  0  0  0  0  0  0
  -89.1856   26.2484   -0.5920 O   0  0  0  0  0  0  0  0  0  0  0  0
  -88.8843   24.1105    0.2287 N   0  0  0  0  0  0  0  0  0  0  0  0
  -86.7301   25.2671    1.3109 H   0  0  0  0  0  0  0  0  0  0  0  0
  -88.4092   23.3975    0.7420 H   0  0  0  0  0  0  0  0  0  0  0  0
  -86.0822   29.9453    0.3958 C   0  0  0  0  0  0  0  0  0  0  0  0
  -86.8279   29.3508   -0.5829 C   0  0  0  0  0  0  0  0  0  0  0  0
  -87.2707   28.0278   -0.4963 C   0  0  0  0  0  0  0  0  0  0  0  0
  -86.9546   27.3051    0.5867 C   0  0  0  0  0  0  0  0  0  0  0  0
  -86.1969   27.9038    1.6088 C   0  0  0  0  0  0  0  0  0  0  0  0
  -85.7671   29.2068    1.5173 C   0  0  0  0  0  0  0  0  0  0  0  0
  -84.9265   29.7629    2.5777 C   0  0  0  0  0  0  0  0  0  0  0  0
  -84.7645   28.7454    3.5458 F   0  0  0  0  0  0  0  0  0  0  0  0
  -83.6192   29.9938    2.1225 F   0  0  0  0  0  0  0  0  0  0  0  0
  -85.4242   30.8023    3.2927 F   0  0  0  0  0  0  0  0  0  0  0  0
  -85.5996   31.3679    0.3593 C   0  0  0  0  0  0  0  0  0  0  0  0
  -87.1984   34.8249   -3.5559 C   0  0  0  0  0  0  0  0  0  0  0  0
  -87.2199   34.2501   -2.2522 N   0  0  0  0  0  0  0  0  0  0  0  0
  -87.7505   32.9249   -2.2127 C   0  0  0  0  0  0  0  0  0  0  0  0
  -87.4392   32.4512   -0.7575 C   0  0  0  0  0  0  0  0  0  0  0  0
  -86.0934   32.0166   -0.7848 N   0  0  0  0  0  0  0  0  0  0  0  0
  -85.2716   33.0113   -1.3566 C   0  0  0  0  0  0  0  0  0  0  0  0
  -86.0425   34.3493   -1.4673 C   0  0  0  0  0  0  0  0  0  0  0  0
  -90.1212   23.8669   -0.4688 C   0  0  0  0  0  0  0  0  0  0  0  0
  -90.1754   23.3845   -1.7339 C   0  0  0  0  0  0  0  0  0  0  0  0
  -91.4273   23.2515   -2.3289 C   0  0  0  0  0  0  0  0  0  0  0  0
  -92.5826   23.5854   -1.6904 C   0  0  0  0  0  0  0  0  0  0  0  0
  -92.4944   24.0790   -0.3802 C   0  0  0  0  0  0  0  0  0  0  0  0
  -91.2911   24.2189    0.2216 C   0  0  0  0  0  0  0  0  0  0  0  0
  -93.8630   23.4768   -2.2443 O   0  0  0  0  0  0  0  0  0  0  0  0
  -94.1112   23.9757   -3.5007 C   0  0  0  0  0  0  0  0  0  0  0  0
  -93.6521   25.2772   -3.8376 C   0  0  0  0  0  0  0  0  0  0  0  0
  -93.9029   25.7936   -5.0873 C   0  0  0  0  0  0  0  0  0  0  0  0
  -94.5875   25.0230   -5.9660 N   0  0  0  0  0  0  0  0  0  0  0  0
  -95.0217   23.7893   -5.6562 C   0  0  0  0  0  0  0  0  0  0  0  0
  -94.7711   23.3020   -4.4355 N   0  0  0  0  0  0  0  0  0  0  0  0
  -93.5262   27.1227   -5.4467 N   0  0  0  0  0  0  0  0  0  0  0  0
  -92.7885   27.4889   -6.6114 C   0  0  0  0  0  0  0  0  0  0  0  0
  -93.8041   27.9047   -4.7840 H   0  0  0  0  0  0  0  0  0  0  0  0
 18 19  1  0  0  0
 19 20  1  0  0  0
 20 21  1  0  0  0
 21 22  1  0  0  0
 22 17  1  0  0  0
 17  7  1  0  0  0
  7  8  2  0  0  0
  8  9  1  0  0  0
  9 10  2  0  0  0
 10  1  1  0  0  0
  1  2  1  0  0  0
  2  3  2  0  0  0
  2  4  1  0  0  0
  4 25  1  0  0  0
 25 26  2  0  0  0
 26 27  1  0  0  0
 27 28  2  0  0  0
 28 31  1  0  0  0
 31 32  1  0  0  0
 32 33  2  0  0  0
 33 34  1  0  0  0
 34 38  1  0  0  0
 38 39  1  0  0  0
 34 35  2  0  0  0
 35 36  1  0  0  0
 36 37  2  0  0  0
 28 29  1  0  0  0
 29 30  2  0  0  0
 10 11  1  0  0  0
 11 12  2  0  0  0
 12 13  1  0  0  0
 13 14  1  0  0  0
 13 15  1  0  0  0
 13 16  1  0  0  0
 22 23  1  0  0  0
 23 24  1  0  0  0
 24 19  1  0  0  0
 12  7  1  0  0  0
 30 25  1  0  0  0
 37 32  1  0  0  0
  1  5  1  0  0  0
  4  6  1  0  0  0
 38 40  1  0  0  0
M  END
> <minimizedAffinity>
-8.31652

> <CNNscore>
0.0962295383

> <CNNaffinity>
6.0143499374

> <CNN_VS>
0.5787581205

> <CNNaffinity_variance>
0.2872606218

$$$$
[H]c1nc(Oc2c([H])c([H])c(N([H])C(=O)N([H])c3c([H])c([H])c(C([H])([H])N4C([H])([H])C([H])([H])N(C([H])([H])[H])C([H])([H])C4([H])[H])c(C(F)(F)F)c3[H])c([H])c2[H])c([H])c(N([H])C([H])([H])[H])n1


 40 43  0  0  0  0  0  0  0  0999 V2000
  -90.6617   24.9385   -1.4541 N   0  0  0  0  0  0  0  0  0  0  0  0
  -89.9252   25.7423   -0.6104 C   0  0  0  0  0  0  0  0  0  0  0  0
  -90.0061   26.9703   -0.5699 O   0  0  0  0  0  0  0  0  0  0  0  0
  -88.9747   25.0994    0.3080 N   0  0  0  0  0  0  0  0  0  0  0  0
  -90.5735   23.8883   -1.4603 H   0  0  0  0  0  0  0  0  0  0  0  0
  -88.8025   24.1196    0.3967 H   0  0  0  0  0  0  0  0  0  0  0  0
  -93.4588   26.9276   -3.9163 C   0  0  0  0  0  0  0  0  0  0  0  0
  -92.1250   26.9353   -4.2133 C   0  0  0  0  0  0  0  0  0  0  0  0
  -91.1735   26.2739   -3.4317 C   0  0  0  0  0  0  0  0  0  0  0  0
  -91.5766   25.6033   -2.3442 C   0  0  0  0  0  0  0  0  0  0  0  0
  -92.9467   25.5755   -2.0291 C   0  0  0  0  0  0  0  0  0  0  0  0
  -93.8770   26.2268   -2.8044 C   0  0  0  0  0  0  0  0  0  0  0  0
  -95.2824   26.2219   -2.3977 C   0  0  0  0  0  0  0  0  0  0  0  0
  -95.3567   25.4810   -1.1959 F   0  0  0  0  0  0  0  0  0  0  0  0
  -95.7070   27.5047   -2.0190 F   0  0  0  0  0  0  0  0  0  0  0  0
  -96.1685   25.5947   -3.2104 F   0  0  0  0  0  0  0  0  0  0  0  0
  -94.5219   27.6051   -4.7342 C   0  0  0  0  0  0  0  0  0  0  0  0
  -94.2058   33.0481   -5.0644 C   0  0  0  0  0  0  0  0  0  0  0  0
  -94.7590   31.7663   -5.3502 N   0  0  0  0  0  0  0  0  0  0  0  0
  -93.9346   30.9535   -6.1862 C   0  0  0  0  0  0  0  0  0  0  0  0
  -94.6339   29.5579   -6.1409 C   0  0  0  0  0  0  0  0  0  0  0  0
  -94.1853   28.9527   -4.9436 N   0  0  0  0  0  0  0  0  0  0  0  0
  -94.3701   29.8313   -3.8546 C   0  0  0  0  0  0  0  0  0  0  0  0
  -95.2793   31.0150   -4.2654 C   0  0  0  0  0  0  0  0  0  0  0  0
  -88.2635   26.0826    1.0846 C   0  0  0  0  0  0  0  0  0  0  0  0
  -88.7997   26.7040    2.1627 C   0  0  0  0  0  0  0  0  0  0  0  0
  -88.0404   27.6849    2.7956 C   0  0  0  0  0  0  0  0  0  0  0  0
  -86.7945   28.0351    2.3729 C   0  0  0  0  0  0  0  0  0  0  0  0
  -86.2650   27.3717    1.2559 C   0  0  0  0  0  0  0  0  0  0  0  0
  -86.9812   26.4153    0.6217 C   0  0  0  0  0  0  0  0  0  0  0  0
  -85.9939   29.0161    2.9685 O   0  0  0  0  0  0  0  0  0  0  0  0
  -84.9860   29.6099    2.2469 C   0  0  0  0  0  0  0  0  0  0  0  0
  -85.2935   30.6914    1.3787 C   0  0  0  0  0  0  0  0  0  0  0  0
  -84.2970   31.2878    0.6422 C   0  0  0  0  0  0  0  0  0  0  0  0
  -83.0359   30.8133    0.7806 N   0  0  0  0  0  0  0  0  0  0  0  0
  -82.7362   29.7931    1.6027 C   0  0  0  0  0  0  0  0  0  0  0  0
  -83.7175   29.2224    2.3111 N   0  0  0  0  0  0  0  0  0  0  0  0
  -84.5688   32.3278   -0.2970 N   0  0  0  0  0  0  0  0  0  0  0  0
  -85.8048   33.0289   -0.4228 C   0  0  0  0  0  0  0  0  0  0  0  0
  -83.7915   32.5925   -0.9705 H   0  0  0  0  0  0  0  0  0  0  0  0
 18 19  1  0  0  0
 19 20  1  0  0  0
 20 21  1  0  0  0
 21 22  1  0  0  0
 22 17  1  0  0  0
 17  7  1  0  0  0
  7  8  2  0  0  0
  8  9  1  0  0  0
  9 10  2  0  0  0
 10  1  1  0  0  0
  1  2  1  0  0  0
  2  3  2  0  0  0
  2  4  1  0  0  0
  4 25  1  0  0  0
 25 26  2  0  0  0
 26 27  1  0  0  0
 27 28  2  0  0  0
 28 31  1  0  0  0
 31 32  1  0  0  0
 32 33  2  0  0  0
 33 34  1  0  0  0
 34 38  1  0  0  0
 38 39  1  0  0  0
 34 35  2  0  0  0
 35 36  1  0  0  0
 36 37  2  0  0  0
 28 29  1  0  0  0
 29 30  2  0  0  0
 10 11  1  0  0  0
 11 12  2  0  0  0
 12 13  1  0  0  0
 13 14  1  0  0  0
 13 15  1  0  0  0
 13 16  1  0  0  0
 22 23  1  0  0  0
 23 24  1  0  0  0
 24 19  1  0  0  0
 12  7  1  0  0  0
 30 25  1  0  0  0
 37 32  1  0  0  0
  1  5  1  0  0  0
  4  6  1  0  0  0
 38 40  1  0  0  0
M  END
> <minimizedAffinity>
-6.78163

> <CNNscore>
0.0864817351

> <CNNaffinity>
6.1786193848

> <CNN_VS>
0.5343376994

> <CNNaffinity_variance>
0.1000224799

$$$$
[H]c1nc(Oc2c([H])c([H])c(N([H])C(=O)N([H])c3c([H])c([H])c(C([H])([H])N4C([H])([H])C([H])([H])N(C([H])([H])[H])C([H])([H])C4([H])[H])c(C(F)(F)F)c3[H])c([H])c2[H])c([H])c(N([H])C([H])([H])[H])n1


 40 43  0  0  0  0  0  0  0  0999 V2000
  -85.9389   33.3844   -1.4906 N   0  0  0  0  0  0  0  0  0  0  0  0
  -86.9784   33.7350   -2.3255 C   0  0  0  0  0  0  0  0  0  0  0  0
  -87.9958   33.0620   -2.4933 O   0  0  0  0  0  0  0  0  0  0  0  0
  -86.8751   34.9970   -3.0717 N   0  0  0  0  0  0  0  0  0  0  0  0
  -85.0829   33.9861   -1.3641 H   0  0  0  0  0  0  0  0  0  0  0  0
  -86.1199   35.6497   -3.0361 H   0  0  0  0  0  0  0  0  0  0  0  0
  -86.2814   29.8201    0.7502 C   0  0  0  0  0  0  0  0  0  0  0  0
  -87.0614   30.0407   -0.3500 C   0  0  0  0  0  0  0  0  0  0  0  0
  -86.9633   31.1997   -1.1251 C   0  0  0  0  0  0  0  0  0  0  0  0
  -86.0715   32.1388   -0.7820 C   0  0  0  0  0  0  0  0  0  0  0  0
  -85.2530   31.9241    0.3409 C   0  0  0  0  0  0  0  0  0  0  0  0
  -85.3538   30.7800    1.0971 C   0  0  0  0  0  0  0  0  0  0  0  0
  -84.5248   30.6334    2.2936 C   0  0  0  0  0  0  0  0  0  0  0  0
  -83.8068   31.8421    2.4431 F   0  0  0  0  0  0  0  0  0  0  0  0
  -85.3119   30.5737    3.4539 F   0  0  0  0  0  0  0  0  0  0  0  0
  -83.5516   29.6891    2.2707 F   0  0  0  0  0  0  0  0  0  0  0  0
  -86.3345   28.5842    1.6033 C   0  0  0  0  0  0  0  0  0  0  0  0
  -90.5457   25.1202    1.2855 C   0  0  0  0  0  0  0  0  0  0  0  0
  -89.1709   25.4749    1.4059 N   0  0  0  0  0  0  0  0  0  0  0  0
  -88.6077   26.0221    0.2130 C   0  0  0  0  0  0  0  0  0  0  0  0
  -87.2089   26.5400    0.6751 C   0  0  0  0  0  0  0  0  0  0  0  0
  -87.4517   27.8059    1.2578 N   0  0  0  0  0  0  0  0  0  0  0  0
  -88.4822   27.7110    2.2174 C   0  0  0  0  0  0  0  0  0  0  0  0
  -88.7802   26.2271    2.5433 C   0  0  0  0  0  0  0  0  0  0  0  0
  -88.0223   35.1880   -3.9221 C   0  0  0  0  0  0  0  0  0  0  0  0
  -88.0400   34.8387   -5.2312 C   0  0  0  0  0  0  0  0  0  0  0  0
  -89.1835   35.1318   -5.9698 C   0  0  0  0  0  0  0  0  0  0  0  0
  -90.2692   35.7491   -5.4275 C   0  0  0  0  0  0  0  0  0  0  0  0
  -90.2222   36.0956   -4.0689 C   0  0  0  0  0  0  0  0  0  0  0  0
  -89.1237   35.8231   -3.3282 C   0  0  0  0  0  0  0  0  0  0  0  0
  -91.4383   36.0709   -6.1259 O   0  0  0  0  0  0  0  0  0  0  0  0
  -91.9475   35.1925   -7.0523 C   0  0  0  0  0  0  0  0  0  0  0  0
  -92.5960   34.0090   -6.6084 C   0  0  0  0  0  0  0  0  0  0  0  0
  -93.1005   33.1157   -7.5242 C   0  0  0  0  0  0  0  0  0  0  0  0
  -92.9600   33.4084   -8.8392 N   0  0  0  0  0  0  0  0  0  0  0  0
  -92.3513   34.5277   -9.2670 C   0  0  0  0  0  0  0  0  0  0  0  0
  -91.8642   35.3860   -8.3633 N   0  0  0  0  0  0  0  0  0  0  0  0
  -93.6942   31.8795   -7.1280 N   0  0  0  0  0  0  0  0  0  0  0  0
  -93.4121   31.1737   -5.9208 C   0  0  0  0  0  0  0  0  0  0  0  0
  -94.3937   31.4384   -7.7944 H   0  0  0  0  0  0  0  0  0  0  0  0
 18 19  1  0  0  0
 19 20  1  0  0  0
 20 21  1  0  0  0
 21 22  1  0  0  0
 22 17  1  0  0  0
 17  7  1  0  0  0
  7  8  2  0  0  0
  8  9  1  0  0  0
  9 10  2  0  0  0
 10  1  1  0  0  0
  1  2  1  0  0  0
  2  3  2  0  0  0
  2  4  1  0  0  0
  4 25  1  0  0  0
 25 26  2  0  0  0
 26 27  1  0  0  0
 27 28  2  0  0  0
 28 31  1  0  0  0
 31 32  1  0  0  0
 32 33  2  0  0  0
 33 34  1  0  0  0
 34 38  1  0  0  0
 38 39  1  0  0  0
 34 35  2  0  0  0
 35 36  1  0  0  0
 36 37  2  0  0  0
 28 29  1  0  0  0
 29 30  2  0  0  0
 10 11  1  0  0  0
 11 12  2  0  0  0
 12 13  1  0  0  0
 13 14  1  0  0  0
 13 15  1  0  0  0
 13 16  1  0  0  0
 22 23  1  0  0  0
 23 24  1  0  0  0
 24 19  1  0  0  0
 12  7  1  0  0  0
 30 25  1  0  0  0
 37 32  1  0  0  0
  1  5  1  0  0  0
  4  6  1  0  0  0
 38 40  1  0  0  0
M  END
> <minimizedAffinity>
-8.92995

> <CNNscore>
0.0850483701

> <CNNaffinity>
6.1149582863

> <CNN_VS>
0.5200672150

> <CNNaffinity_variance>
0.1089061648

$$$$
[H]c1nc(Oc2c([H])c([H])c(N([H])C(=O)N([H])c3c([H])c([H])c(C([H])([H])N4C([H])([H])C([H])([H])N(C([H])([H])[H])C([H])([H])C4([H])[H])c(C(F)(F)F)c3[H])c([H])c2[H])c([H])c(N([H])C([H])([H])[H])n1


 40 43  0  0  0  0  0  0  0  0999 V2000
  -89.1223   24.9435    0.4584 N   0  0  0  0  0  0  0  0  0  0  0  0
  -88.3634   26.0360    0.8203 C   0  0  0  0  0  0  0  0  0  0  0  0
  -88.4077   27.1322    0.2612 O   0  0  0  0  0  0  0  0  0  0  0  0
  -87.4338   25.8931    1.9497 N   0  0  0  0  0  0  0  0  0  0  0  0
  -89.0655   24.0193    0.9617 H   0  0  0  0  0  0  0  0  0  0  0  0
  -87.2910   25.0742    2.5034 H   0  0  0  0  0  0  0  0  0  0  0  0
  -91.8847   25.4949   -2.6892 C   0  0  0  0  0  0  0  0  0  0  0  0
  -90.5623   25.8004   -2.8482 C   0  0  0  0  0  0  0  0  0  0  0  0
  -89.6173   25.6146   -1.8352 C   0  0  0  0  0  0  0  0  0  0  0  0
  -90.0157   25.1183   -0.6562 C   0  0  0  0  0  0  0  0  0  0  0  0
  -91.3709   24.7882   -0.4782 C   0  0  0  0  0  0  0  0  0  0  0  0
  -92.2942   24.9716   -1.4806 C   0  0  0  0  0  0  0  0  0  0  0  0
  -93.7033   24.6736   -1.2237 C   0  0  0  0  0  0  0  0  0  0  0  0
  -93.7844   24.2000    0.1059 F   0  0  0  0  0  0  0  0  0  0  0  0
  -94.4756   25.8452   -1.2023 F   0  0  0  0  0  0  0  0  0  0  0  0
  -94.2767   23.6806   -1.9478 F   0  0  0  0  0  0  0  0  0  0  0  0
  -92.9346   25.6571   -3.7521 C   0  0  0  0  0  0  0  0  0  0  0  0
  -93.8760   30.6984   -5.6321 C   0  0  0  0  0  0  0  0  0  0  0  0
  -93.9886   29.2779   -5.6312 N   0  0  0  0  0  0  0  0  0  0  0  0
  -92.7808   28.6014   -5.9820 C   0  0  0  0  0  0  0  0  0  0  0  0
  -93.0985   27.1043   -5.6713 C   0  0  0  0  0  0  0  0  0  0  0  0
  -92.8913   26.9583   -4.2797 N   0  0  0  0  0  0  0  0  0  0  0  0
  -93.5996   27.9547   -3.5744 C   0  0  0  0  0  0  0  0  0  0  0  0
  -94.6068   28.6652   -4.5111 C   0  0  0  0  0  0  0  0  0  0  0  0
  -86.6947   27.1108    2.1658 C   0  0  0  0  0  0  0  0  0  0  0  0
  -87.2699   28.2598    2.5958 C   0  0  0  0  0  0  0  0  0  0  0  0
  -86.4657   29.3913    2.7056 C   0  0  0  0  0  0  0  0  0  0  0  0
  -85.1390   29.3813    2.3994 C   0  0  0  0  0  0  0  0  0  0  0  0
  -84.5715   28.1759    1.9598 C   0  0  0  0  0  0  0  0  0  0  0  0
  -85.3298   27.0619    1.8435 C   0  0  0  0  0  0  0  0  0  0  0  0
  -84.2895   30.4897    2.4864 O   0  0  0  0  0  0  0  0  0  0  0  0
  -84.1145   31.3070    1.3952 C   0  0  0  0  0  0  0  0  0  0  0  0
  -85.2525   31.7844    0.6916 C   0  0  0  0  0  0  0  0  0  0  0  0
  -85.0922   32.5937   -0.4086 C   0  0  0  0  0  0  0  0  0  0  0  0
  -83.8299   32.9134   -0.7819 N   0  0  0  0  0  0  0  0  0  0  0  0
  -82.7484   32.4689   -0.1192 C   0  0  0  0  0  0  0  0  0  0  0  0
  -82.9213   31.6808    0.9482 N   0  0  0  0  0  0  0  0  0  0  0  0
  -86.2012   33.0374   -1.1901 N   0  0  0  0  0  0  0  0  0  0  0  0
  -87.5750   32.7940   -0.8928 C   0  0  0  0  0  0  0  0  0  0  0  0
  -85.9869   33.5814   -2.0767 H   0  0  0  0  0  0  0  0  0  0  0  0
 18 19  1  0  0  0
 19 20  1  0  0  0
 20 21  1  0  0  0
 21 22  1  0  0  0
 22 17  1  0  0  0
 17  7  1  0  0  0
  7  8  2  0  0  0
  8  9  1  0  0  0
  9 10  2  0  0  0
 10  1  1  0  0  0
  1  2  1  0  0  0
  2  3  2  0  0  0
  2  4  1  0  0  0
  4 25  1  0  0  0
 25 26  2  0  0  0
 26 27  1  0  0  0
 27 28  2  0  0  0
 28 31  1  0  0  0
 31 32  1  0  0  0
 32 33  2  0  0  0
 33 34  1  0  0  0
 34 38  1  0  0  0
 38 39  1  0  0  0
 34 35  2  0  0  0
 35 36  1  0  0  0
 36 37  2  0  0  0
 28 29  1  0  0  0
 29 30  2  0  0  0
 10 11  1  0  0  0
 11 12  2  0  0  0
 12 13  1  0  0  0
 13 14  1  0  0  0
 13 15  1  0  0  0
 13 16  1  0  0  0
 22 23  1  0  0  0
 23 24  1  0  0  0
 24 19  1  0  0  0
 12  7  1  0  0  0
 30 25  1  0  0  0
 37 32  1  0  0  0
  1  5  1  0  0  0
  4  6  1  0  0  0
 38 40  1  0  0  0
M  END
> <minimizedAffinity>
-7.30133

> <CNNscore>
0.0805163607

> <CNNaffinity>
6.2569417953

> <CNN_VS>
0.5037862062

> <CNNaffinity_variance>
0.0472171679

$$$$
[H]c1nc(Oc2c([H])c([H])c(N([H])C(=O)N([H])c3c([H])c([H])c(C([H])([H])N4C([H])([H])C([H])([H])N(C([H])([H])[H])C([H])([H])C4([H])[H])c(C(F)(F)F)c3[H])c([H])c2[H])c([H])c(N([H])C([H])([H])[H])n1


 40 43  0  0  0  0  0  0  0  0999 V2000
  -87.2496   26.3273    0.3115 N   0  0  0  0  0  0  0  0  0  0  0  0
  -88.4431   25.7685   -0.0932 C   0  0  0  0  0  0  0  0  0  0  0  0
  -89.3428   26.3839   -0.6660 O   0  0  0  0  0  0  0  0  0  0  0  0
  -88.6674   24.3405    0.1726 N   0  0  0  0  0  0  0  0  0  0  0  0
  -86.4959   25.7714    0.7949 H   0  0  0  0  0  0  0  0  0  0  0  0
  -88.0333   23.7112    0.6193 H   0  0  0  0  0  0  0  0  0  0  0  0
  -86.5354   30.4248   -0.4254 C   0  0  0  0  0  0  0  0  0  0  0  0
  -87.4303   29.7172   -1.1776 C   0  0  0  0  0  0  0  0  0  0  0  0
  -87.7049   28.3654   -0.9513 C   0  0  0  0  0  0  0  0  0  0  0  0
  -87.0681   27.7291    0.0410 C   0  0  0  0  0  0  0  0  0  0  0  0
  -86.1517   28.4441    0.8323 C   0  0  0  0  0  0  0  0  0  0  0  0
  -85.8889   29.7746    0.6049 C   0  0  0  0  0  0  0  0  0  0  0  0
  -84.8789   30.4567    1.4143 C   0  0  0  0  0  0  0  0  0  0  0  0
  -84.3974   29.5107    2.3482 F   0  0  0  0  0  0  0  0  0  0  0  0
  -83.7438   30.7722    0.6519 F   0  0  0  0  0  0  0  0  0  0  0  0
  -85.2907   31.4876    2.1933 F   0  0  0  0  0  0  0  0  0  0  0  0
  -86.2206   31.8818   -0.6154 C   0  0  0  0  0  0  0  0  0  0  0  0
  -88.9567   34.9873   -4.1798 C   0  0  0  0  0  0  0  0  0  0  0  0
  -88.5015   34.6010   -2.8859 N   0  0  0  0  0  0  0  0  0  0  0  0
  -89.0824   33.3877   -2.4064 C   0  0  0  0  0  0  0  0  0  0  0  0
  -88.2542   33.0707   -1.1209 C   0  0  0  0  0  0  0  0  0  0  0  0
  -87.0751   32.4391   -1.5811 N   0  0  0  0  0  0  0  0  0  0  0  0
  -86.4708   33.2139   -2.5941 C   0  0  0  0  0  0  0  0  0  0  0  0
  -87.1042   34.6257   -2.6430 C   0  0  0  0  0  0  0  0  0  0  0  0
  -89.9739   23.9319   -0.2766 C   0  0  0  0  0  0  0  0  0  0  0  0
  -91.0501   23.8602    0.5437 C   0  0  0  0  0  0  0  0  0  0  0  0
  -92.2471   23.3889    0.0106 C   0  0  0  0  0  0  0  0  0  0  0  0
  -92.3701   23.0034   -1.2894 C   0  0  0  0  0  0  0  0  0  0  0  0
  -91.2392   23.0922   -2.1147 C   0  0  0  0  0  0  0  0  0  0  0  0
  -90.0637   23.5459   -1.6227 C   0  0  0  0  0  0  0  0  0  0  0  0
  -93.5461   22.5181   -1.8720 O   0  0  0  0  0  0  0  0  0  0  0  0
  -94.1966   23.2630   -2.8266 C   0  0  0  0  0  0  0  0  0  0  0  0
  -94.7278   22.6157   -3.9741 C   0  0  0  0  0  0  0  0  0  0  0  0
  -95.3714   23.3499   -4.9426 C   0  0  0  0  0  0  0  0  0  0  0  0
  -95.4791   24.6873   -4.7573 N   0  0  0  0  0  0  0  0  0  0  0  0
  -94.9827   25.3066   -3.6727 C   0  0  0  0  0  0  0  0  0  0  0  0
  -94.3577   24.5782   -2.7402 N   0  0  0  0  0  0  0  0  0  0  0  0
  -95.8562   22.7551   -6.1463 N   0  0  0  0  0  0  0  0  0  0  0  0
  -95.6562   21.3985   -6.5396 C   0  0  0  0  0  0  0  0  0  0  0  0
  -96.3985   23.3777   -6.8142 H   0  0  0  0  0  0  0  0  0  0  0  0
 18 19  1  0  0  0
 19 20  1  0  0  0
 20 21  1  0  0  0
 21 22  1  0  0  0
 22 17  1  0  0  0
 17  7  1  0  0  0
  7  8  2  0  0  0
  8  9  1  0  0  0
  9 10  2  0  0  0
 10  1  1  0  0  0
  1  2  1  0  0  0
  2  3  2  0  0  0
  2  4  1  0  0  0
  4 25  1  0  0  0
 25 26  2  0  0  0
 26 27  1  0  0  0
 27 28  2  0  0  0
 28 31  1  0  0  0
 31 32  1  0  0  0
 32 33  2  0  0  0
 33 34  1  0  0  0
 34 38  1  0  0  0
 38 39  1  0  0  0
 34 35  2  0  0  0
 35 36  1  0  0  0
 36 37  2  0  0  0
 28 29  1  0  0  0
 29 30  2  0  0  0
 10 11  1  0  0  0
 11 12  2  0  0  0
 12 13  1  0  0  0
 13 14  1  0  0  0
 13 15  1  0  0  0
 13 16  1  0  0  0
 22 23  1  0  0  0
 23 24  1  0  0  0
 24 19  1  0  0  0
 12  7  1  0  0  0
 30 25  1  0  0  0
 37 32  1  0  0  0
  1  5  1  0  0  0
  4  6  1  0  0  0
 38 40  1  0  0  0
M  END
> <minimizedAffinity>
-7.77660

> <CNNscore>
0.0770627558

> <CNNaffinity>
6.1178455353

> <CNN_VS>
0.4714580476

> <CNNaffinity_variance>
0.2875645161

$$$$
[H]c1nc(Oc2c([H])c([H])c(N([H])C(=O)N([H])c3c([H])c([H])c(C([H])([H])N4C([H])([H])C([H])([H])N(C([H])([H])[H])C([H])([H])C4([H])[H])c(C(F)(F)F)c3[H])c([H])c2[H])c([H])c(N([H])C2([H])C([H])([H])C2([H])[H])n1


 42 46  0  0  0  0  0  0  0  0999 V2000
  -89.2057   23.8927   -0.4263 N   0  0  0  0  0  0  0  0  0  0  0  0
  -88.8679   25.2541   -0.2312 C   0  0  0  0  0  0  0  0  0  0  0  0
  -89.6644   26.1967   -0.4349 O   0  0  0  0  0  0  0  0  0  0  0  0
  -87.5500   25.5394    0.2198 N   0  0  0  0  0  0  0  0  0  0  0  0
  -88.4366   23.1770   -0.2178 H   0  0  0  0  0  0  0  0  0  0  0  0
  -86.8713   24.7187    0.3877 H   0  0  0  0  0  0  0  0  0  0  0  0
  -92.8928   22.3068   -1.8656 C   0  0  0  0  0  0  0  0  0  0  0  0
  -92.1406   23.2497   -2.5414 C   0  0  0  0  0  0  0  0  0  0  0  0
  -90.9591   23.7691   -2.0901 C   0  0  0  0  0  0  0  0  0  0  0  0
  -90.4267   23.3471   -0.8580 C   0  0  0  0  0  0  0  0  0  0  0  0
  -91.1530   22.4187   -0.1801 C   0  0  0  0  0  0  0  0  0  0  0  0
  -92.3644   21.8940   -0.6529 C   0  0  0  0  0  0  0  0  0  0  0  0
  -93.0782   20.8946    0.1780 C   0  0  0  0  0  0  0  0  0  0  0  0
  -93.3470   19.7804   -0.5825 F   0  0  0  0  0  0  0  0  0  0  0  0
  -94.2975   21.4339    0.6155 F   0  0  0  0  0  0  0  0  0  0  0  0
  -92.3860   20.5689    1.3351 F   0  0  0  0  0  0  0  0  0  0  0  0
  -94.1309   21.7277   -2.4050 C   0  0  0  0  0  0  0  0  0  0  0  0
  -95.4884   20.6256   -7.0042 C   0  0  0  0  0  0  0  0  0  0  0  0
  -95.5988   20.0081   -5.6969 N   0  0  0  0  0  0  0  0  0  0  0  0
  -96.1209   20.9755   -4.7812 C   0  0  0  0  0  0  0  0  0  0  0  0
  -95.0704   22.0424   -4.5340 C   0  0  0  0  0  0  0  0  0  0  0  0
  -93.9970   21.4306   -3.8088 N   0  0  0  0  0  0  0  0  0  0  0  0
  -93.8428   20.0263   -3.9822 C   0  0  0  0  0  0  0  0  0  0  0  0
  -94.2865   19.5252   -5.3315 C   0  0  0  0  0  0  0  0  0  0  0  0
  -87.0878   26.8445    0.4643 C   0  0  0  0  0  0  0  0  0  0  0  0
  -86.9783   27.8587   -0.4488 C   0  0  0  0  0  0  0  0  0  0  0  0
  -86.4821   29.0995   -0.1112 C   0  0  0  0  0  0  0  0  0  0  0  0
  -86.0851   29.3311    1.1773 C   0  0  0  0  0  0  0  0  0  0  0  0
  -86.1863   28.3223    2.1204 C   0  0  0  0  0  0  0  0  0  0  0  0
  -86.6772   27.0972    1.7816 C   0  0  0  0  0  0  0  0  0  0  0  0
  -85.5737   30.5472    1.6089 O   0  0  0  0  0  0  0  0  0  0  0  0
  -84.8962   31.4216    0.7753 C   0  0  0  0  0  0  0  0  0  0  0  0
  -85.6159   32.2042   -0.1296 C   0  0  0  0  0  0  0  0  0  0  0  0
  -85.0314   33.0875   -0.9836 C   0  0  0  0  0  0  0  0  0  0  0  0
  -83.6725   33.1820   -0.9198 N   0  0  0  0  0  0  0  0  0  0  0  0
  -82.9453   32.4470   -0.0637 C   0  0  0  0  0  0  0  0  0  0  0  0
  -83.5636   31.5743    0.7752 N   0  0  0  0  0  0  0  0  0  0  0  0
  -85.7058   33.9112   -1.9201 N   0  0  0  0  0  0  0  0  0  0  0  0
  -85.2072   34.6741   -2.4492 H   0  0  0  0  0  0  0  0  0  0  0  0
  -87.1090   33.7102   -2.1636 C   0  0  0  0  0  0  0  0  0  0  0  0
  -87.9365   34.5868   -2.9921 C   0  0  0  0  0  0  0  0  0  0  0  0
  -87.4533   33.2961   -3.6302 C   0  0  0  0  0  0  0  0  0  0  0  0
 18 19  1  0  0  0
 19 20  1  0  0  0
 20 21  1  0  0  0
 21 22  1  0  0  0
 22 17  1  0  0  0
 17  7  1  0  0  0
  7  8  2  0  0  0
  8  9  1  0  0  0
  9 10  2  0  0  0
 10  1  1  0  0  0
  1  2  1  0  0  0
  2  3  2  0  0  0
  2  4  1  0  0  0
  4 25  1  0  0  0
 25 26  2  0  0  0
 26 27  1  0  0  0
 27 28  2  0  0  0
 28 31  1  0  0  0
 31 32  1  0  0  0
 32 33  2  0  0  0
 33 34  1  0  0  0
 34 38  1  0  0  0
 38 40  1  0  0  0
 40 41  1  0  0  0
 41 42  1  0  0  0
 34 35  2  0  0  0
 35 36  1  0  0  0
 36 37  2  0  0  0
 28 29  1  0  0  0
 29 30  2  0  0  0
 10 11  1  0  0  0
 11 12  2  0  0  0
 12 13  1  0  0  0
 13 14  1  0  0  0
 13 15  1  0  0  0
 13 16  1  0  0  0
 22 23  1  0  0  0
 23 24  1  0  0  0
 24 19  1  0  0  0
 12  7  1  0  0  0
 30 25  1  0  0  0
 37 32  1  0  0  0
 42 40  1  0  0  0
  1  5  1  0  0  0
  4  6  1  0  0  0
 38 39  1  0  0  0
M  END
> <minimizedAffinity>
-8.24699

> <CNNscore>
0.3088790774

> <CNNaffinity>
6.4018821716

> <CNN_VS>
1.9774074554

> <CNNaffinity_variance>
0.2617884576

$$$$
[H]c1nc(Oc2c([H])c([H])c(N([H])C(=O)N([H])c3c([H])c([H])c(C([H])([H])N4C([H])([H])C([H])([H])N(C([H])([H])[H])C([H])([H])C4([H])[H])c(C(F)(F)F)c3[H])c([H])c2[H])c([H])c(N([H])C2([H])C([H])([H])C2([H])[H])n1


 42 46  0  0  0  0  0  0  0  0999 V2000
  -91.3252   26.5356   -3.8228 N   0  0  0  0  0  0  0  0  0  0  0  0
  -90.6901   26.5625   -2.5573 C   0  0  0  0  0  0  0  0  0  0  0  0
  -91.2609   26.2343   -1.4939 O   0  0  0  0  0  0  0  0  0  0  0  0
  -89.3340   26.9880   -2.5186 N   0  0  0  0  0  0  0  0  0  0  0  0
  -90.7307   26.8403   -4.6602 H   0  0  0  0  0  0  0  0  0  0  0  0
  -88.8542   27.2725   -3.4413 H   0  0  0  0  0  0  0  0  0  0  0  0
  -95.2913   25.2493   -4.7152 C   0  0  0  0  0  0  0  0  0  0  0  0
  -94.2801   24.4040   -4.2974 C   0  0  0  0  0  0  0  0  0  0  0  0
  -93.0038   24.8023   -4.0114 C   0  0  0  0  0  0  0  0  0  0  0  0
  -92.6423   26.1566   -4.1333 C   0  0  0  0  0  0  0  0  0  0  0  0
  -93.6252   27.0027   -4.5420 C   0  0  0  0  0  0  0  0  0  0  0  0
  -94.9307   26.5820   -4.8334 C   0  0  0  0  0  0  0  0  0  0  0  0
  -95.9186   27.5919   -5.2840 C   0  0  0  0  0  0  0  0  0  0  0  0
  -96.1732   27.4120   -6.6237 F   0  0  0  0  0  0  0  0  0  0  0  0
  -95.3880   28.8786   -5.1054 F   0  0  0  0  0  0  0  0  0  0  0  0
  -97.0855   27.5701   -4.5344 F   0  0  0  0  0  0  0  0  0  0  0  0
  -96.6679   24.7976   -4.9607 C   0  0  0  0  0  0  0  0  0  0  0  0
  -96.6351   21.3343   -8.4557 C   0  0  0  0  0  0  0  0  0  0  0  0
  -95.6738   21.9125   -7.5369 N   0  0  0  0  0  0  0  0  0  0  0  0
  -96.2387   21.9000   -6.2225 C   0  0  0  0  0  0  0  0  0  0  0  0
  -97.3732   22.9060   -6.1603 C   0  0  0  0  0  0  0  0  0  0  0  0
  -96.7970   24.2129   -6.2715 N   0  0  0  0  0  0  0  0  0  0  0  0
  -95.5480   24.2923   -6.9496 C   0  0  0  0  0  0  0  0  0  0  0  0
  -95.3622   23.2413   -8.0123 C   0  0  0  0  0  0  0  0  0  0  0  0
  -88.5825   27.0508   -1.3321 C   0  0  0  0  0  0  0  0  0  0  0  0
  -88.1184   25.9911   -0.5999 C   0  0  0  0  0  0  0  0  0  0  0  0
  -87.4127   26.1617    0.5717 C   0  0  0  0  0  0  0  0  0  0  0  0
  -87.1643   27.4293    1.0222 C   0  0  0  0  0  0  0  0  0  0  0  0
  -87.6220   28.5184    0.2998 C   0  0  0  0  0  0  0  0  0  0  0  0
  -88.3195   28.3445   -0.8578 C   0  0  0  0  0  0  0  0  0  0  0  0
  -86.4631   27.6981    2.1896 O   0  0  0  0  0  0  0  0  0  0  0  0
  -85.1270   28.0632    2.2025 C   0  0  0  0  0  0  0  0  0  0  0  0
  -84.7579   29.3331    1.7547 C   0  0  0  0  0  0  0  0  0  0  0  0
  -83.4706   29.7729    1.7333 C   0  0  0  0  0  0  0  0  0  0  0  0
  -82.5247   28.8981    2.1799 N   0  0  0  0  0  0  0  0  0  0  0  0
  -82.8394   27.6690    2.6183 C   0  0  0  0  0  0  0  0  0  0  0  0
  -84.1368   27.2634    2.6255 N   0  0  0  0  0  0  0  0  0  0  0  0
  -83.0336   31.0488    1.2955 N   0  0  0  0  0  0  0  0  0  0  0  0
  -82.4430   31.6731    1.9054 H   0  0  0  0  0  0  0  0  0  0  0  0
  -83.3998   31.5152   -0.0149 C   0  0  0  0  0  0  0  0  0  0  0  0
  -84.5047   32.4350   -0.2841 C   0  0  0  0  0  0  0  0  0  0  0  0
  -83.1076   33.0299   -0.2621 C   0  0  0  0  0  0  0  0  0  0  0  0
 18 19  1  0  0  0
 19 20  1  0  0  0
 20 21  1  0  0  0
 21 22  1  0  0  0
 22 17  1  0  0  0
 17  7  1  0  0  0
  7  8  2  0  0  0
  8  9  1  0  0  0
  9 10  2  0  0  0
 10  1  1  0  0  0
  1  2  1  0  0  0
  2  3  2  0  0  0
  2  4  1  0  0  0
  4 25  1  0  0  0
 25 26  2  0  0  0
 26 27  1  0  0  0
 27 28  2  0  0  0
 28 31  1  0  0  0
 31 32  1  0  0  0
 32 33  2  0  0  0
 33 34  1  0  0  0
 34 38  1  0  0  0
 38 40  1  0  0  0
 40 41  1  0  0  0
 41 42  1  0  0  0
 34 35  2  0  0  0
 35 36  1  0  0  0
 36 37  2  0  0  0
 28 29  1  0  0  0
 29 30  2  0  0  0
 10 11  1  0  0  0
 11 12  2  0  0  0
 12 13  1  0  0  0
 13 14  1  0  0  0
 13 15  1  0  0  0
 13 16  1  0  0  0
 22 23  1  0  0  0
 23 24  1  0  0  0
 24 19  1  0  0  0
 12  7  1  0  0  0
 30 25  1  0  0  0
 37 32  1  0  0  0
 42 40  1  0  0  0
  1  5  1  0  0  0
  4  6  1  0  0  0
 38 39  1  0  0  0
M  END
> <minimizedAffinity>
-7.54951

> <CNNscore>
0.2004524916

> <CNNaffinity>
6.2817249298

> <CNN_VS>
1.2591874599

> <CNNaffinity_variance>
0.2245264500

$$$$
[H]c1nc(Oc2c([H])c([H])c(N([H])C(=O)N([H])c3c([H])c([H])c(C([H])([H])N4C([H])([H])C([H])([H])N(C([H])([H])[H])C([H])([H])C4([H])[H])c(C(F)(F)F)c3[H])c([H])c2[H])c([H])c(N([H])C2([H])C([H])([H])C2([H])[H])n1


 42 46  0  0  0  0  0  0  0  0999 V2000
  -92.2015   30.1006   -5.6544 N   0  0  0  0  0  0  0  0  0  0  0  0
  -91.1652   30.5212   -4.7855 C   0  0  0  0  0  0  0  0  0  0  0  0
  -90.8347   29.8944   -3.7549 O   0  0  0  0  0  0  0  0  0  0  0  0
  -90.4797   31.7203   -5.1228 N   0  0  0  0  0  0  0  0  0  0  0  0
  -92.3909   30.7230   -6.5054 H   0  0  0  0  0  0  0  0  0  0  0  0
  -90.7767   32.2539   -6.0114 H   0  0  0  0  0  0  0  0  0  0  0  0
  -94.5998   26.5816   -5.4393 C   0  0  0  0  0  0  0  0  0  0  0  0
  -93.5361   26.7402   -6.3081 C   0  0  0  0  0  0  0  0  0  0  0  0
  -92.7613   27.8638   -6.3901 C   0  0  0  0  0  0  0  0  0  0  0  0
  -93.0217   28.9641   -5.5526 C   0  0  0  0  0  0  0  0  0  0  0  0
  -94.0640   28.8250   -4.6905 C   0  0  0  0  0  0  0  0  0  0  0  0
  -94.8522   27.6676   -4.6165 C   0  0  0  0  0  0  0  0  0  0  0  0
  -95.9729   27.6322   -3.6460 C   0  0  0  0  0  0  0  0  0  0  0  0
  -97.1660   27.6145   -4.3303 F   0  0  0  0  0  0  0  0  0  0  0  0
  -95.9392   28.7867   -2.8491 F   0  0  0  0  0  0  0  0  0  0  0  0
  -95.8774   26.5713   -2.7574 F   0  0  0  0  0  0  0  0  0  0  0  0
  -95.3777   25.3392   -5.3377 C   0  0  0  0  0  0  0  0  0  0  0  0
  -93.9807   20.7410   -4.2815 C   0  0  0  0  0  0  0  0  0  0  0  0
  -94.4908   21.8819   -3.5462 N   0  0  0  0  0  0  0  0  0  0  0  0
  -95.6587   22.3671   -4.2152 C   0  0  0  0  0  0  0  0  0  0  0  0
  -95.2490   23.0024   -5.5311 C   0  0  0  0  0  0  0  0  0  0  0  0
  -94.5125   24.1922   -5.2244 N   0  0  0  0  0  0  0  0  0  0  0  0
  -93.8580   24.2168   -3.9606 C   0  0  0  0  0  0  0  0  0  0  0  0
  -93.4292   22.8594   -3.4685 C   0  0  0  0  0  0  0  0  0  0  0  0
  -89.4252   32.2440   -4.3546 C   0  0  0  0  0  0  0  0  0  0  0  0
  -88.0963   31.9349   -4.4698 C   0  0  0  0  0  0  0  0  0  0  0  0
  -87.1407   32.4850   -3.6428 C   0  0  0  0  0  0  0  0  0  0  0  0
  -87.5268   33.3701   -2.6737 C   0  0  0  0  0  0  0  0  0  0  0  0
  -88.8646   33.7002   -2.5368 C   0  0  0  0  0  0  0  0  0  0  0  0
  -89.8056   33.1534   -3.3566 C   0  0  0  0  0  0  0  0  0  0  0  0
  -86.6366   33.9735   -1.7962 O   0  0  0  0  0  0  0  0  0  0  0  0
  -85.6465   33.2758   -1.1243 C   0  0  0  0  0  0  0  0  0  0  0  0
  -86.0034   32.2408   -0.2578 C   0  0  0  0  0  0  0  0  0  0  0  0
  -85.0969   31.5050    0.4407 C   0  0  0  0  0  0  0  0  0  0  0  0
  -83.7848   31.8275    0.2564 N   0  0  0  0  0  0  0  0  0  0  0  0
  -83.4016   32.8154   -0.5676 C   0  0  0  0  0  0  0  0  0  0  0  0
  -84.3354   33.5297   -1.2498 N   0  0  0  0  0  0  0  0  0  0  0  0
  -85.3952   30.4418    1.3302 N   0  0  0  0  0  0  0  0  0  0  0  0
  -86.2152   30.4838    1.9908 H   0  0  0  0  0  0  0  0  0  0  0  0
  -84.5633   29.2685    1.3409 C   0  0  0  0  0  0  0  0  0  0  0  0
  -83.2910   29.1659    2.0552 C   0  0  0  0  0  0  0  0  0  0  0  0
  -84.5030   28.5369    2.7201 C   0  0  0  0  0  0  0  0  0  0  0  0
 18 19  1  0  0  0
 19 20  1  0  0  0
 20 21  1  0  0  0
 21 22  1  0  0  0
 22 17  1  0  0  0
 17  7  1  0  0  0
  7  8  2  0  0  0
  8  9  1  0  0  0
  9 10  2  0  0  0
 10  1  1  0  0  0
  1  2  1  0  0  0
  2  3  2  0  0  0
  2  4  1  0  0  0
  4 25  1  0  0  0
 25 26  2  0  0  0
 26 27  1  0  0  0
 27 28  2  0  0  0
 28 31  1  0  0  0
 31 32  1  0  0  0
 32 33  2  0  0  0
 33 34  1  0  0  0
 34 38  1  0  0  0
 38 40  1  0  0  0
 40 41  1  0  0  0
 41 42  1  0  0  0
 34 35  2  0  0  0
 35 36  1  0  0  0
 36 37  2  0  0  0
 28 29  1  0  0  0
 29 30  2  0  0  0
 10 11  1  0  0  0
 11 12  2  0  0  0
 12 13  1  0  0  0
 13 14  1  0  0  0
 13 15  1  0  0  0
 13 16  1  0  0  0
 22 23  1  0  0  0
 23 24  1  0  0  0
 24 19  1  0  0  0
 12  7  1  0  0  0
 30 25  1  0  0  0
 37 32  1  0  0  0
 42 40  1  0  0  0
  1  5  1  0  0  0
  4  6  1  0  0  0
 38 39  1  0  0  0
M  END
> <minimizedAffinity>
-8.11664

> <CNNscore>
0.1925612539

> <CNNaffinity>
6.2049589157

> <CNN_VS>
1.1948347092

> <CNNaffinity_variance>
0.0414275937

$$$$
[H]c1nc(Oc2c([H])c([H])c(N([H])C(=O)N([H])c3c([H])c([H])c(C([H])([H])N4C([H])([H])C([H])([H])N(C([H])([H])[H])C([H])([H])C4([H])[H])c(C(F)(F)F)c3[H])c([H])c2[H])c([H])c(N([H])C2([H])C([H])([H])C2([H])[H])n1


 42 46  0  0  0  0  0  0  0  0999 V2000
  -91.9602   30.8265   -3.8442 N   0  0  0  0  0  0  0  0  0  0  0  0
  -90.6788   31.0439   -3.2816 C   0  0  0  0  0  0  0  0  0  0  0  0
  -89.9557   30.1236   -2.8408 O   0  0  0  0  0  0  0  0  0  0  0  0
  -90.2118   32.3857   -3.2258 N   0  0  0  0  0  0  0  0  0  0  0  0
  -92.4832   31.6961   -4.1869 H   0  0  0  0  0  0  0  0  0  0  0  0
  -90.8461   33.1708   -3.6049 H   0  0  0  0  0  0  0  0  0  0  0  0
  -94.0984   27.1586   -4.2396 C   0  0  0  0  0  0  0  0  0  0  0  0
  -94.0604   27.9101   -3.0797 C   0  0  0  0  0  0  0  0  0  0  0  0
  -93.3764   29.0854   -2.9381 C   0  0  0  0  0  0  0  0  0  0  0  0
  -92.6448   29.6117   -4.0186 C   0  0  0  0  0  0  0  0  0  0  0  0
  -92.6721   28.8860   -5.1682 C   0  0  0  0  0  0  0  0  0  0  0  0
  -93.3768   27.6809   -5.3010 C   0  0  0  0  0  0  0  0  0  0  0  0
  -93.3250   26.9671   -6.5997 C   0  0  0  0  0  0  0  0  0  0  0  0
  -92.2297   27.3981   -7.3116 F   0  0  0  0  0  0  0  0  0  0  0  0
  -94.4777   27.2628   -7.3432 F   0  0  0  0  0  0  0  0  0  0  0  0
  -93.3285   25.5878   -6.4523 F   0  0  0  0  0  0  0  0  0  0  0  0
  -94.8892   25.9277   -4.3756 C   0  0  0  0  0  0  0  0  0  0  0  0
  -93.7989   21.8500   -1.8470 C   0  0  0  0  0  0  0  0  0  0  0  0
  -94.7570   22.2329   -2.8658 N   0  0  0  0  0  0  0  0  0  0  0  0
  -94.0533   22.8824   -3.9287 C   0  0  0  0  0  0  0  0  0  0  0  0
  -93.5579   24.2324   -3.4439 C   0  0  0  0  0  0  0  0  0  0  0  0
  -94.7060   25.0638   -3.2367 N   0  0  0  0  0  0  0  0  0  0  0  0
  -95.9269   24.3887   -2.9543 C   0  0  0  0  0  0  0  0  0  0  0  0
  -95.7473   23.0767   -2.2366 C   0  0  0  0  0  0  0  0  0  0  0  0
  -88.9557   32.7404   -2.7035 C   0  0  0  0  0  0  0  0  0  0  0  0
  -87.8203   33.0156   -3.4174 C   0  0  0  0  0  0  0  0  0  0  0  0
  -86.6253   33.3257   -2.8045 C   0  0  0  0  0  0  0  0  0  0  0  0
  -86.5661   33.3619   -1.4382 C   0  0  0  0  0  0  0  0  0  0  0  0
  -87.7005   33.0883   -0.6928 C   0  0  0  0  0  0  0  0  0  0  0  0
  -88.8794   32.7819   -1.3034 C   0  0  0  0  0  0  0  0  0  0  0  0
  -85.4083   33.6640   -0.7347 O   0  0  0  0  0  0  0  0  0  0  0  0
  -84.5838   32.6969   -0.1838 C   0  0  0  0  0  0  0  0  0  0  0  0
  -85.1424   31.6788    0.5912 C   0  0  0  0  0  0  0  0  0  0  0  0
  -84.4072   30.6903    1.1688 C   0  0  0  0  0  0  0  0  0  0  0  0
  -83.0611   30.7337    0.9551 N   0  0  0  0  0  0  0  0  0  0  0  0
  -82.4864   31.6958    0.2163 C   0  0  0  0  0  0  0  0  0  0  0  0
  -83.2526   32.6677   -0.3459 N   0  0  0  0  0  0  0  0  0  0  0  0
  -84.9146   29.6295    1.9611 N   0  0  0  0  0  0  0  0  0  0  0  0
  -84.9280   29.6795    3.0136 H   0  0  0  0  0  0  0  0  0  0  0  0
  -85.4277   28.4472    1.3226 C   0  0  0  0  0  0  0  0  0  0  0  0
  -85.4576   27.1223    1.9417 C   0  0  0  0  0  0  0  0  0  0  0  0
  -86.7570   27.9084    1.9422 C   0  0  0  0  0  0  0  0  0  0  0  0
 18 19  1  0  0  0
 19 20  1  0  0  0
 20 21  1  0  0  0
 21 22  1  0  0  0
 22 17  1  0  0  0
 17  7  1  0  0  0
  7  8  2  0  0  0
  8  9  1  0  0  0
  9 10  2  0  0  0
 10  1  1  0  0  0
  1  2  1  0  0  0
  2  3  2  0  0  0
  2  4  1  0  0  0
  4 25  1  0  0  0
 25 26  2  0  0  0
 26 27  1  0  0  0
 27 28  2  0  0  0
 28 31  1  0  0  0
 31 32  1  0  0  0
 32 33  2  0  0  0
 33 34  1  0  0  0
 34 38  1  0  0  0
 38 40  1  0  0  0
 40 41  1  0  0  0
 41 42  1  0  0  0
 34 35  2  0  0  0
 35 36  1  0  0  0
 36 37  2  0  0  0
 28 29  1  0  0  0
 29 30  2  0  0  0
 10 11  1  0  0  0
 11 12  2  0  0  0
 12 13  1  0  0  0
 13 14  1  0  0  0
 13 15  1  0  0  0
 13 16  1  0  0  0
 22 23  1  0  0  0
 23 24  1  0  0  0
 24 19  1  0  0  0
 12  7  1  0  0  0
 30 25  1  0  0  0
 37 32  1  0  0  0
 42 40  1  0  0  0
  1  5  1  0  0  0
  4  6  1  0  0  0
 38 39  1  0  0  0
M  END
> <minimizedAffinity>
-7.89882

> <CNNscore>
0.1787941307

> <CNNaffinity>
6.2437334061

> <CNN_VS>
1.1163429022

> <CNNaffinity_variance>
0.0814006701

$$$$
[H]c1nc(Oc2c([H])c([H])c(N([H])C(=O)N([H])c3c([H])c([H])c(C([H])([H])N4C([H])([H])C([H])([H])N(C([H])([H])[H])C([H])([H])C4([H])[H])c(C(F)(F)F)c3[H])c([H])c2[H])c([H])c(N([H])C2([H])C([H])([H])C2([H])[H])n1


 42 46  0  0  0  0  0  0  0  0999 V2000
  -92.2312   28.6768   -3.6505 N   0  0  0  0  0  0  0  0  0  0  0  0
  -91.1565   29.2509   -2.9286 C   0  0  0  0  0  0  0  0  0  0  0  0
  -90.5781   28.6744   -1.9814 O   0  0  0  0  0  0  0  0  0  0  0  0
  -90.7308   30.5501   -3.3190 N   0  0  0  0  0  0  0  0  0  0  0  0
  -92.6441   29.2700   -4.4411 H   0  0  0  0  0  0  0  0  0  0  0  0
  -91.2401   31.0386   -4.1342 H   0  0  0  0  0  0  0  0  0  0  0  0
  -93.9311   24.7998   -3.1398 C   0  0  0  0  0  0  0  0  0  0  0  0
  -92.6607   25.0277   -3.6355 C   0  0  0  0  0  0  0  0  0  0  0  0
  -92.1048   26.2649   -3.8077 C   0  0  0  0  0  0  0  0  0  0  0  0
  -92.8340   27.4202   -3.4708 C   0  0  0  0  0  0  0  0  0  0  0  0
  -94.0854   27.2146   -2.9803 C   0  0  0  0  0  0  0  0  0  0  0  0
  -94.6452   25.9404   -2.8091 C   0  0  0  0  0  0  0  0  0  0  0  0
  -96.0255   25.8364   -2.2773 C   0  0  0  0  0  0  0  0  0  0  0  0
  -96.0087   25.1102   -1.1092 F   0  0  0  0  0  0  0  0  0  0  0  0
  -96.8351   25.1617   -3.2038 F   0  0  0  0  0  0  0  0  0  0  0  0
  -96.6252   27.0747   -2.1008 F   0  0  0  0  0  0  0  0  0  0  0  0
  -94.4778   23.4547   -2.9147 C   0  0  0  0  0  0  0  0  0  0  0  0
  -95.5274   20.2867   -6.5303 C   0  0  0  0  0  0  0  0  0  0  0  0
  -95.5688   20.2820   -5.0809 N   0  0  0  0  0  0  0  0  0  0  0  0
  -96.2621   21.4546   -4.6434 C   0  0  0  0  0  0  0  0  0  0  0  0
  -95.4034   22.6734   -4.9265 C   0  0  0  0  0  0  0  0  0  0  0  0
  -94.2636   22.6081   -4.0612 N   0  0  0  0  0  0  0  0  0  0  0  0
  -93.8811   21.3086   -3.6243 C   0  0  0  0  0  0  0  0  0  0  0  0
  -94.2053   20.2140   -4.6068 C   0  0  0  0  0  0  0  0  0  0  0  0
  -89.6700   31.2302   -2.6956 C   0  0  0  0  0  0  0  0  0  0  0  0
  -88.4105   31.4188   -3.1982 C   0  0  0  0  0  0  0  0  0  0  0  0
  -87.4288   32.0776   -2.4897 C   0  0  0  0  0  0  0  0  0  0  0  0
  -87.7169   32.5617   -1.2431 C   0  0  0  0  0  0  0  0  0  0  0  0
  -88.9835   32.3850   -0.7120 C   0  0  0  0  0  0  0  0  0  0  0  0
  -89.9505   31.7326   -1.4163 C   0  0  0  0  0  0  0  0  0  0  0  0
  -86.7934   33.2371   -0.4571 O   0  0  0  0  0  0  0  0  0  0  0  0
  -85.4813   32.8206   -0.3049 C   0  0  0  0  0  0  0  0  0  0  0  0
  -85.2193   31.5613    0.2381 C   0  0  0  0  0  0  0  0  0  0  0  0
  -83.9625   31.0737    0.4223 C   0  0  0  0  0  0  0  0  0  0  0  0
  -82.9360   31.8881    0.0443 N   0  0  0  0  0  0  0  0  0  0  0  0
  -83.1469   33.1050   -0.4816 C   0  0  0  0  0  0  0  0  0  0  0  0
  -84.4167   33.5595   -0.6512 N   0  0  0  0  0  0  0  0  0  0  0  0
  -83.6322   29.8054    0.9634 N   0  0  0  0  0  0  0  0  0  0  0  0
  -82.9826   29.1414    0.4659 H   0  0  0  0  0  0  0  0  0  0  0  0
  -84.1929   29.4024    2.2251 C   0  0  0  0  0  0  0  0  0  0  0  0
  -85.1673   28.3238    2.3879 C   0  0  0  0  0  0  0  0  0  0  0  0
  -83.7214   27.9965    2.7173 C   0  0  0  0  0  0  0  0  0  0  0  0
 18 19  1  0  0  0
 19 20  1  0  0  0
 20 21  1  0  0  0
 21 22  1  0  0  0
 22 17  1  0  0  0
 17  7  1  0  0  0
  7  8  2  0  0  0
  8  9  1  0  0  0
  9 10  2  0  0  0
 10  1  1  0  0  0
  1  2  1  0  0  0
  2  3  2  0  0  0
  2  4  1  0  0  0
  4 25  1  0  0  0
 25 26  2  0  0  0
 26 27  1  0  0  0
 27 28  2  0  0  0
 28 31  1  0  0  0
 31 32  1  0  0  0
 32 33  2  0  0  0
 33 34  1  0  0  0
 34 38  1  0  0  0
 38 40  1  0  0  0
 40 41  1  0  0  0
 41 42  1  0  0  0
 34 35  2  0  0  0
 35 36  1  0  0  0
 36 37  2  0  0  0
 28 29  1  0  0  0
 29 30  2  0  0  0
 10 11  1  0  0  0
 11 12  2  0  0  0
 12 13  1  0  0  0
 13 14  1  0  0  0
 13 15  1  0  0  0
 13 16  1  0  0  0
 22 23  1  0  0  0
 23 24  1  0  0  0
 24 19  1  0  0  0
 12  7  1  0  0  0
 30 25  1  0  0  0
 37 32  1  0  0  0
 42 40  1  0  0  0
  1  5  1  0  0  0
  4  6  1  0  0  0
 38 39  1  0  0  0
M  END
> <minimizedAffinity>
-7.15103

> <CNNscore>
0.1583900601

> <CNNaffinity>
6.1317329407

> <CNN_VS>
0.9712055326

> <CNNaffinity_variance>
0.0749030411

$$$$
[H]c1nc(Oc2c([H])c([H])c(N([H])C(=O)N([H])c3c([H])c([H])c(C([H])([H])N4C([H])([H])C([H])([H])N(C([H])([H])[H])C([H])([H])C4([H])[H])c(C(F)(F)F)c3[H])c([H])c2[H])c([H])c(N([H])C2([H])C([H])([H])C2([H])[H])n1


 42 46  0  0  0  0  0  0  0  0999 V2000
  -90.4415   25.0600    0.8383 N   0  0  0  0  0  0  0  0  0  0  0  0
  -89.3655   25.9807    0.8250 C   0  0  0  0  0  0  0  0  0  0  0  0
  -89.2037   26.8370   -0.0721 O   0  0  0  0  0  0  0  0  0  0  0  0
  -88.4342   25.9086    1.8969 N   0  0  0  0  0  0  0  0  0  0  0  0
  -90.4713   24.3747    1.6610 H   0  0  0  0  0  0  0  0  0  0  0  0
  -88.5819   25.1634    2.6619 H   0  0  0  0  0  0  0  0  0  0  0  0
  -93.6234   24.7942   -1.9877 C   0  0  0  0  0  0  0  0  0  0  0  0
  -93.1679   25.9818   -1.4460 C   0  0  0  0  0  0  0  0  0  0  0  0
  -92.1516   26.0812   -0.5368 C   0  0  0  0  0  0  0  0  0  0  0  0
  -91.4884   24.9237   -0.0893 C   0  0  0  0  0  0  0  0  0  0  0  0
  -91.9227   23.7464   -0.6129 C   0  0  0  0  0  0  0  0  0  0  0  0
  -92.9672   23.6572   -1.5443 C   0  0  0  0  0  0  0  0  0  0  0  0
  -93.3659   22.3171   -2.0383 C   0  0  0  0  0  0  0  0  0  0  0  0
  -94.7266   22.1689   -1.9018 F   0  0  0  0  0  0  0  0  0  0  0  0
  -92.7357   21.3273   -1.2686 F   0  0  0  0  0  0  0  0  0  0  0  0
  -92.9545   22.0837   -3.3423 F   0  0  0  0  0  0  0  0  0  0  0  0
  -94.6813   24.7272   -3.0053 C   0  0  0  0  0  0  0  0  0  0  0  0
  -95.3110   27.3077   -7.1472 C   0  0  0  0  0  0  0  0  0  0  0  0
  -95.5803   25.9558   -6.6973 N   0  0  0  0  0  0  0  0  0  0  0  0
  -96.2722   26.0234   -5.4469 C   0  0  0  0  0  0  0  0  0  0  0  0
  -95.3178   26.5230   -4.3780 C   0  0  0  0  0  0  0  0  0  0  0  0
  -94.3334   25.5036   -4.1685 N   0  0  0  0  0  0  0  0  0  0  0  0
  -94.0922   24.6293   -5.2656 C   0  0  0  0  0  0  0  0  0  0  0  0
  -94.3138   25.2648   -6.6130 C   0  0  0  0  0  0  0  0  0  0  0  0
  -87.3282   26.7689    2.0122 C   0  0  0  0  0  0  0  0  0  0  0  0
  -86.0208   26.4617    1.7460 C   0  0  0  0  0  0  0  0  0  0  0  0
  -85.0024   27.3738    1.9211 C   0  0  0  0  0  0  0  0  0  0  0  0
  -85.3021   28.6292    2.3749 C   0  0  0  0  0  0  0  0  0  0  0  0
  -86.6167   28.9655    2.6508 C   0  0  0  0  0  0  0  0  0  0  0  0
  -87.6199   28.0601    2.4765 C   0  0  0  0  0  0  0  0  0  0  0  0
  -84.3442   29.6123    2.5812 O   0  0  0  0  0  0  0  0  0  0  0  0
  -84.0225   30.5664    1.6300 C   0  0  0  0  0  0  0  0  0  0  0  0
  -85.0205   31.4106    1.1394 C   0  0  0  0  0  0  0  0  0  0  0  0
  -84.7923   32.3737    0.2059 C   0  0  0  0  0  0  0  0  0  0  0  0
  -83.5109   32.4864   -0.2467 N   0  0  0  0  0  0  0  0  0  0  0  0
  -82.5238   31.6940    0.2002 C   0  0  0  0  0  0  0  0  0  0  0  0
  -82.7887   30.7421    1.1338 N   0  0  0  0  0  0  0  0  0  0  0  0
  -85.7599   33.2623   -0.3277 N   0  0  0  0  0  0  0  0  0  0  0  0
  -85.8968   34.2325    0.0601 H   0  0  0  0  0  0  0  0  0  0  0  0
  -86.5834   32.8397   -1.4286 C   0  0  0  0  0  0  0  0  0  0  0  0
  -87.4308   31.6475   -1.4148 C   0  0  0  0  0  0  0  0  0  0  0  0
  -88.1184   32.9799   -1.1730 C   0  0  0  0  0  0  0  0  0  0  0  0
 18 19  1  0  0  0
 19 20  1  0  0  0
 20 21  1  0  0  0
 21 22  1  0  0  0
 22 17  1  0  0  0
 17  7  1  0  0  0
  7  8  2  0  0  0
  8  9  1  0  0  0
  9 10  2  0  0  0
 10  1  1  0  0  0
  1  2  1  0  0  0
  2  3  2  0  0  0
  2  4  1  0  0  0
  4 25  1  0  0  0
 25 26  2  0  0  0
 26 27  1  0  0  0
 27 28  2  0  0  0
 28 31  1  0  0  0
 31 32  1  0  0  0
 32 33  2  0  0  0
 33 34  1  0  0  0
 34 38  1  0  0  0
 38 40  1  0  0  0
 40 41  1  0  0  0
 41 42  1  0  0  0
 34 35  2  0  0  0
 35 36  1  0  0  0
 36 37  2  0  0  0
 28 29  1  0  0  0
 29 30  2  0  0  0
 10 11  1  0  0  0
 11 12  2  0  0  0
 12 13  1  0  0  0
 13 14  1  0  0  0
 13 15  1  0  0  0
 13 16  1  0  0  0
 22 23  1  0  0  0
 23 24  1  0  0  0
 24 19  1  0  0  0
 12  7  1  0  0  0
 30 25  1  0  0  0
 37 32  1  0  0  0
 42 40  1  0  0  0
  1  5  1  0  0  0
  4  6  1  0  0  0
 38 39  1  0  0  0
M  END
> <minimizedAffinity>
-7.41717

> <CNNscore>
0.1550561339

> <CNNaffinity>
6.4126067162

> <CNN_VS>
0.9943140149

> <CNNaffinity_variance>
0.2260630429

$$$$
[H]c1nc(Oc2c([H])c([H])c(N([H])C(=O)N([H])c3c([H])c([H])c(C([H])([H])N4C([H])([H])C([H])([H])N(C([H])([H])[H])C([H])([H])C4([H])[H])c(C(F)(F)F)c3[H])c([H])c2[H])c([H])c(N([H])C2([H])C([H])([H])C2([H])[H])n1


 42 46  0  0  0  0  0  0  0  0999 V2000
  -91.0346   26.3875   -3.7211 N   0  0  0  0  0  0  0  0  0  0  0  0
  -90.4566   26.7749   -2.4876 C   0  0  0  0  0  0  0  0  0  0  0  0
  -91.0218   27.5361   -1.6718 O   0  0  0  0  0  0  0  0  0  0  0  0
  -89.1671   26.2593   -2.1827 N   0  0  0  0  0  0  0  0  0  0  0  0
  -90.4514   25.7310   -4.3345 H   0  0  0  0  0  0  0  0  0  0  0  0
  -88.6883   25.6075   -2.8958 H   0  0  0  0  0  0  0  0  0  0  0  0
  -94.7693   27.4641   -5.4745 C   0  0  0  0  0  0  0  0  0  0  0  0
  -93.6092   27.2516   -6.1960 C   0  0  0  0  0  0  0  0  0  0  0  0
  -92.4048   26.9096   -5.6467 C   0  0  0  0  0  0  0  0  0  0  0  0
  -92.2837   26.7487   -4.2541 C   0  0  0  0  0  0  0  0  0  0  0  0
  -93.4155   26.9527   -3.5286 C   0  0  0  0  0  0  0  0  0  0  0  0
  -94.6452   27.3042   -4.1037 C   0  0  0  0  0  0  0  0  0  0  0  0
  -95.8118   27.5145   -3.2128 C   0  0  0  0  0  0  0  0  0  0  0  0
  -96.1578   28.8457   -3.2239 F   0  0  0  0  0  0  0  0  0  0  0  0
  -95.4683   27.1596   -1.8993 F   0  0  0  0  0  0  0  0  0  0  0  0
  -96.8884   26.7037   -3.5411 F   0  0  0  0  0  0  0  0  0  0  0  0
  -96.0611   27.7761   -6.1013 C   0  0  0  0  0  0  0  0  0  0  0  0
  -96.5677   32.2997   -7.9697 C   0  0  0  0  0  0  0  0  0  0  0  0
  -97.4502   31.2266   -7.5549 N   0  0  0  0  0  0  0  0  0  0  0  0
  -97.0620   30.8010   -6.2453 C   0  0  0  0  0  0  0  0  0  0  0  0
  -95.7247   30.0888   -6.3310 C   0  0  0  0  0  0  0  0  0  0  0  0
  -95.9344   28.8620   -7.0403 N   0  0  0  0  0  0  0  0  0  0  0  0
  -97.0360   28.8386   -7.9415 C   0  0  0  0  0  0  0  0  0  0  0  0
  -97.3583   30.1795   -8.5468 C   0  0  0  0  0  0  0  0  0  0  0  0
  -88.4848   26.5539   -0.9894 C   0  0  0  0  0  0  0  0  0  0  0  0
  -88.5012   25.8194    0.1659 C   0  0  0  0  0  0  0  0  0  0  0  0
  -87.8176   26.2137    1.2959 C   0  0  0  0  0  0  0  0  0  0  0  0
  -87.0965   27.3760    1.2676 C   0  0  0  0  0  0  0  0  0  0  0  0
  -87.0628   28.1370    0.1113 C   0  0  0  0  0  0  0  0  0  0  0  0
  -87.7407   27.7431   -1.0031 C   0  0  0  0  0  0  0  0  0  0  0  0
  -86.3777   27.8520    2.3555 O   0  0  0  0  0  0  0  0  0  0  0  0
  -85.0284   28.1591    2.2948 C   0  0  0  0  0  0  0  0  0  0  0  0
  -84.6294   29.4066    1.8112 C   0  0  0  0  0  0  0  0  0  0  0  0
  -83.3273   29.7901    1.7177 C   0  0  0  0  0  0  0  0  0  0  0  0
  -82.3976   28.8805    2.1273 N   0  0  0  0  0  0  0  0  0  0  0  0
  -82.7412   27.6713    2.5981 C   0  0  0  0  0  0  0  0  0  0  0  0
  -84.0525   27.3222    2.6775 N   0  0  0  0  0  0  0  0  0  0  0  0
  -82.8597   31.0407    1.2404 N   0  0  0  0  0  0  0  0  0  0  0  0
  -82.1806   31.6274    1.7928 H   0  0  0  0  0  0  0  0  0  0  0  0
  -83.3175   31.5332   -0.0311 C   0  0  0  0  0  0  0  0  0  0  0  0
  -84.5300   32.3294   -0.2194 C   0  0  0  0  0  0  0  0  0  0  0  0
  -83.2119   33.0834   -0.1949 C   0  0  0  0  0  0  0  0  0  0  0  0
 18 19  1  0  0  0
 19 20  1  0  0  0
 20 21  1  0  0  0
 21 22  1  0  0  0
 22 17  1  0  0  0
 17  7  1  0  0  0
  7  8  2  0  0  0
  8  9  1  0  0  0
  9 10  2  0  0  0
 10  1  1  0  0  0
  1  2  1  0  0  0
  2  3  2  0  0  0
  2  4  1  0  0  0
  4 25  1  0  0  0
 25 26  2  0  0  0
 26 27  1  0  0  0
 27 28  2  0  0  0
 28 31  1  0  0  0
 31 32  1  0  0  0
 32 33  2  0  0  0
 33 34  1  0  0  0
 34 38  1  0  0  0
 38 40  1  0  0  0
 40 41  1  0  0  0
 41 42  1  0  0  0
 34 35  2  0  0  0
 35 36  1  0  0  0
 36 37  2  0  0  0
 28 29  1  0  0  0
 29 30  2  0  0  0
 10 11  1  0  0  0
 11 12  2  0  0  0
 12 13  1  0  0  0
 13 14  1  0  0  0
 13 15  1  0  0  0
 13 16  1  0  0  0
 22 23  1  0  0  0
 23 24  1  0  0  0
 24 19  1  0  0  0
 12  7  1  0  0  0
 30 25  1  0  0  0
 37 32  1  0  0  0
 42 40  1  0  0  0
  1  5  1  0  0  0
  4  6  1  0  0  0
 38 39  1  0  0  0
M  END
> <minimizedAffinity>
-7.54670

> <CNNscore>
0.1406474710

> <CNNaffinity>
6.1622552872

> <CNN_VS>
0.8667055964

> <CNNaffinity_variance>
0.1720560342

$$$$
[H]c1nc(Oc2c([H])c([H])c(N([H])C(=O)N([H])c3c([H])c([H])c(C([H])([H])N4C([H])([H])C([H])([H])N(C([H])([H])[H])C([H])([H])C4([H])[H])c(C(F)(F)F)c3[H])c([H])c2[H])c([H])c(N([H])C2([H])C([H])([H])C2([H])[H])n1


 42 46  0  0  0  0  0  0  0  0999 V2000
  -86.2904   33.3435   -1.4391 N   0  0  0  0  0  0  0  0  0  0  0  0
  -87.1892   33.8546   -2.4069 C   0  0  0  0  0  0  0  0  0  0  0  0
  -88.2114   33.2428   -2.7875 O   0  0  0  0  0  0  0  0  0  0  0  0
  -86.8935   35.1307   -2.9599 N   0  0  0  0  0  0  0  0  0  0  0  0
  -85.4502   33.9620   -1.1964 H   0  0  0  0  0  0  0  0  0  0  0  0
  -86.0071   35.6464   -2.6270 H   0  0  0  0  0  0  0  0  0  0  0  0
  -86.5779   29.5928    0.5686 C   0  0  0  0  0  0  0  0  0  0  0  0
  -87.3774   29.9624   -0.4970 C   0  0  0  0  0  0  0  0  0  0  0  0
  -87.2984   31.1625   -1.1474 C   0  0  0  0  0  0  0  0  0  0  0  0
  -86.3531   32.1236   -0.7444 C   0  0  0  0  0  0  0  0  0  0  0  0
  -85.5571   31.7762    0.3018 C   0  0  0  0  0  0  0  0  0  0  0  0
  -85.6483   30.5423    0.9617 C   0  0  0  0  0  0  0  0  0  0  0  0
  -84.7363   30.2764    2.1003 C   0  0  0  0  0  0  0  0  0  0  0  0
  -85.4806   30.0039    3.2245 F   0  0  0  0  0  0  0  0  0  0  0  0
  -83.9577   31.4162    2.3531 F   0  0  0  0  0  0  0  0  0  0  0  0
  -83.8266   29.2642    1.8317 F   0  0  0  0  0  0  0  0  0  0  0  0
  -86.6510   28.2727    1.2097 C   0  0  0  0  0  0  0  0  0  0  0  0
  -90.6198   25.4396    1.8678 C   0  0  0  0  0  0  0  0  0  0  0  0
  -89.1817   25.2540    1.8669 N   0  0  0  0  0  0  0  0  0  0  0  0
  -88.5962   26.2442    2.7176 C   0  0  0  0  0  0  0  0  0  0  0  0
  -88.7349   27.6061    2.0626 C   0  0  0  0  0  0  0  0  0  0  0  0
  -87.8952   27.6137    0.9020 N   0  0  0  0  0  0  0  0  0  0  0  0
  -87.6257   26.3457    0.3141 C   0  0  0  0  0  0  0  0  0  0  0  0
  -88.7327   25.3407    0.4959 C   0  0  0  0  0  0  0  0  0  0  0  0
  -87.7064   35.7587   -3.9197 C   0  0  0  0  0  0  0  0  0  0  0  0
  -88.8315   36.5012   -3.6800 C   0  0  0  0  0  0  0  0  0  0  0  0
  -89.5781   37.0519   -4.6993 C   0  0  0  0  0  0  0  0  0  0  0  0
  -89.1864   36.8539   -5.9951 C   0  0  0  0  0  0  0  0  0  0  0  0
  -88.0517   36.1075   -6.2646 C   0  0  0  0  0  0  0  0  0  0  0  0
  -87.3172   35.5648   -5.2534 C   0  0  0  0  0  0  0  0  0  0  0  0
  -89.8746   37.3690   -7.0850 O   0  0  0  0  0  0  0  0  0  0  0  0
  -90.4409   36.5730   -8.0670 C   0  0  0  0  0  0  0  0  0  0  0  0
  -91.0529   35.3707   -7.7078 C   0  0  0  0  0  0  0  0  0  0  0  0
  -91.6331   34.5298   -8.6065 C   0  0  0  0  0  0  0  0  0  0  0  0
  -91.5922   34.9187   -9.9130 N   0  0  0  0  0  0  0  0  0  0  0  0
  -91.0134   36.0670  -10.2981 C   0  0  0  0  0  0  0  0  0  0  0  0
  -90.4436   36.8828   -9.3721 N   0  0  0  0  0  0  0  0  0  0  0  0
  -92.2721   33.3006   -8.3048 N   0  0  0  0  0  0  0  0  0  0  0  0
  -92.0481   32.4146   -8.8295 H   0  0  0  0  0  0  0  0  0  0  0  0
  -93.2552   33.2484   -7.2561 C   0  0  0  0  0  0  0  0  0  0  0  0
  -93.9991   32.0460   -6.8819 C   0  0  0  0  0  0  0  0  0  0  0  0
  -92.8166   32.4208   -6.0057 C   0  0  0  0  0  0  0  0  0  0  0  0
 18 19  1  0  0  0
 19 20  1  0  0  0
 20 21  1  0  0  0
 21 22  1  0  0  0
 22 17  1  0  0  0
 17  7  1  0  0  0
  7  8  2  0  0  0
  8  9  1  0  0  0
  9 10  2  0  0  0
 10  1  1  0  0  0
  1  2  1  0  0  0
  2  3  2  0  0  0
  2  4  1  0  0  0
  4 25  1  0  0  0
 25 26  2  0  0  0
 26 27  1  0  0  0
 27 28  2  0  0  0
 28 31  1  0  0  0
 31 32  1  0  0  0
 32 33  2  0  0  0
 33 34  1  0  0  0
 34 38  1  0  0  0
 38 40  1  0  0  0
 40 41  1  0  0  0
 41 42  1  0  0  0
 34 35  2  0  0  0
 35 36  1  0  0  0
 36 37  2  0  0  0
 28 29  1  0  0  0
 29 30  2  0  0  0
 10 11  1  0  0  0
 11 12  2  0  0  0
 12 13  1  0  0  0
 13 14  1  0  0  0
 13 15  1  0  0  0
 13 16  1  0  0  0
 22 23  1  0  0  0
 23 24  1  0  0  0
 24 19  1  0  0  0
 12  7  1  0  0  0
 30 25  1  0  0  0
 37 32  1  0  0  0
 42 40  1  0  0  0
  1  5  1  0  0  0
  4  6  1  0  0  0
 38 39  1  0  0  0
M  END
> <minimizedAffinity>
-8.51604

> <CNNscore>
0.1255868077

> <CNNaffinity>
6.3511133194

> <CNN_VS>
0.7976160645

> <CNNaffinity_variance>
0.0775238127

$$$$
[H]c1nc(Oc2c([H])c([H])c(N([H])C(=O)N([H])c3c([H])c([H])c(C([H])([H])N4C([H])([H])C([H])([H])N(C([H])([H])[H])C([H])([H])C4([H])[H])c(C(F)(F)F)c3[H])c([H])c2[H])c([H])c(N([H])C2([H])C([H])([H])C2([H])[H])n1


 42 46  0  0  0  0  0  0  0  0999 V2000
  -92.7890   27.0161   -1.5915 N   0  0  0  0  0  0  0  0  0  0  0  0
  -91.4247   27.0930   -1.2193 C   0  0  0  0  0  0  0  0  0  0  0  0
  -90.5645   27.7127   -1.8828 O   0  0  0  0  0  0  0  0  0  0  0  0
  -91.0369   26.4236   -0.0264 N   0  0  0  0  0  0  0  0  0  0  0  0
  -93.4288   26.4551   -0.9410 H   0  0  0  0  0  0  0  0  0  0  0  0
  -91.7868   25.8892    0.5345 H   0  0  0  0  0  0  0  0  0  0  0  0
  -94.7513   28.8589   -4.8983 C   0  0  0  0  0  0  0  0  0  0  0  0
  -94.7603   29.3676   -3.6128 C   0  0  0  0  0  0  0  0  0  0  0  0
  -94.1387   28.7855   -2.5431 C   0  0  0  0  0  0  0  0  0  0  0  0
  -93.4249   27.5843   -2.7085 C   0  0  0  0  0  0  0  0  0  0  0  0
  -93.4045   27.0702   -3.9671 C   0  0  0  0  0  0  0  0  0  0  0  0
  -94.0470   27.6761   -5.0564 C   0  0  0  0  0  0  0  0  0  0  0  0
  -93.9686   27.0183   -6.3831 C   0  0  0  0  0  0  0  0  0  0  0  0
  -93.2710   27.8266   -7.2503 F   0  0  0  0  0  0  0  0  0  0  0  0
  -95.2631   26.8379   -6.8938 F   0  0  0  0  0  0  0  0  0  0  0  0
  -93.4205   25.7457   -6.3174 F   0  0  0  0  0  0  0  0  0  0  0  0
  -95.3831   29.5390   -6.0374 C   0  0  0  0  0  0  0  0  0  0  0  0
  -94.7936   34.1001   -7.7864 C   0  0  0  0  0  0  0  0  0  0  0  0
  -94.2207   32.7925   -8.0403 N   0  0  0  0  0  0  0  0  0  0  0  0
  -95.2881   31.8580   -8.2250 C   0  0  0  0  0  0  0  0  0  0  0  0
  -95.9902   31.6379   -6.8978 C   0  0  0  0  0  0  0  0  0  0  0  0
  -95.0773   30.9473   -6.0364 N   0  0  0  0  0  0  0  0  0  0  0  0
  -93.6931   31.1307   -6.3129 C   0  0  0  0  0  0  0  0  0  0  0  0
  -93.3641   32.4682   -6.9224 C   0  0  0  0  0  0  0  0  0  0  0  0
  -89.7191   26.4288    0.4632 C   0  0  0  0  0  0  0  0  0  0  0  0
  -88.6035   25.9688   -0.1836 C   0  0  0  0  0  0  0  0  0  0  0  0
  -87.3550   25.9922    0.3999 C   0  0  0  0  0  0  0  0  0  0  0  0
  -87.2200   26.4910    1.6666 C   0  0  0  0  0  0  0  0  0  0  0  0
  -88.3325   26.9633    2.3424 C   0  0  0  0  0  0  0  0  0  0  0  0
  -89.5647   26.9377    1.7613 C   0  0  0  0  0  0  0  0  0  0  0  0
  -86.0044   26.5545    2.3336 O   0  0  0  0  0  0  0  0  0  0  0  0
  -85.0585   27.5367    2.0905 C   0  0  0  0  0  0  0  0  0  0  0  0
  -85.3982   28.6364    1.3002 C   0  0  0  0  0  0  0  0  0  0  0  0
  -84.5321   29.6452    1.0116 C   0  0  0  0  0  0  0  0  0  0  0  0
  -83.2797   29.5375    1.5405 N   0  0  0  0  0  0  0  0  0  0  0  0
  -82.9149   28.4961    2.3049 C   0  0  0  0  0  0  0  0  0  0  0  0
  -83.8071   27.5062    2.5726 N   0  0  0  0  0  0  0  0  0  0  0  0
  -84.8173   30.7872    0.2210 N   0  0  0  0  0  0  0  0  0  0  0  0
  -85.5392   30.7653   -0.5462 H   0  0  0  0  0  0  0  0  0  0  0  0
  -84.1084   32.0151    0.4630 C   0  0  0  0  0  0  0  0  0  0  0  0
  -82.8450   32.3783   -0.1783 C   0  0  0  0  0  0  0  0  0  0  0  0
  -84.1067   33.0044   -0.7462 C   0  0  0  0  0  0  0  0  0  0  0  0
 18 19  1  0  0  0
 19 20  1  0  0  0
 20 21  1  0  0  0
 21 22  1  0  0  0
 22 17  1  0  0  0
 17  7  1  0  0  0
  7  8  2  0  0  0
  8  9  1  0  0  0
  9 10  2  0  0  0
 10  1  1  0  0  0
  1  2  1  0  0  0
  2  3  2  0  0  0
  2  4  1  0  0  0
  4 25  1  0  0  0
 25 26  2  0  0  0
 26 27  1  0  0  0
 27 28  2  0  0  0
 28 31  1  0  0  0
 31 32  1  0  0  0
 32 33  2  0  0  0
 33 34  1  0  0  0
 34 38  1  0  0  0
 38 40  1  0  0  0
 40 41  1  0  0  0
 41 42  1  0  0  0
 34 35  2  0  0  0
 35 36  1  0  0  0
 36 37  2  0  0  0
 28 29  1  0  0  0
 29 30  2  0  0  0
 10 11  1  0  0  0
 11 12  2  0  0  0
 12 13  1  0  0  0
 13 14  1  0  0  0
 13 15  1  0  0  0
 13 16  1  0  0  0
 22 23  1  0  0  0
 23 24  1  0  0  0
 24 19  1  0  0  0
 12  7  1  0  0  0
 30 25  1  0  0  0
 37 32  1  0  0  0
 42 40  1  0  0  0
  1  5  1  0  0  0
  4  6  1  0  0  0
 38 39  1  0  0  0
M  END
> <minimizedAffinity>
-7.99695

> <CNNscore>
0.1165741384

> <CNNaffinity>
6.3609504700

> <CNN_VS>
0.7415223122

> <CNNaffinity_variance>
0.1905458421

$$$$
[H]OC([H])([H])C([H])([H])N1C([H])([H])C([H])([H])N(C2([H])C([H])([H])C([H])([H])N(c3c([H])c([H])c(N([H])c4nc([H])c(Cl)c(N([H])c5c([H])c([H])c([H])c([H])c5S(=O)(=O)C([H])(C([H])([H])[H])C([H])([H])[H])n4)c(OC([H])([H])[H])c3[H])C([H])([H])C2([H])[H])C([H])([H])C1([H])[H]


 47 51  0  0  0  0  0  0  0  0999 V2000
  -88.0827   34.8662   -4.0325 C   0  0  0  0  0  0  0  0  0  0  0  0
  -89.3773   34.9486   -4.4793 C   0  0  0  0  0  0  0  0  0  0  0  0
  -90.2228   33.8666   -4.4654 C   0  0  0  0  0  0  0  0  0  0  0  0
  -89.6898   32.6974   -3.9751 C   0  0  0  0  0  0  0  0  0  0  0  0
  -88.3836   32.5758   -3.5147 C   0  0  0  0  0  0  0  0  0  0  0  0
  -87.5663   33.6684   -3.5401 C   0  0  0  0  0  0  0  0  0  0  0  0
  -91.5601   33.8663   -4.9330 N   0  0  0  0  0  0  0  0  0  0  0  0
  -92.2722   35.1065   -5.0415 C   0  0  0  0  0  0  0  0  0  0  0  0
  -93.7038   35.0285   -4.5941 C   0  0  0  0  0  0  0  0  0  0  0  0
  -94.3593   33.7892   -5.1703 C   0  0  0  0  0  0  0  0  0  0  0  0
  -93.6472   32.5392   -4.8064 C   0  0  0  0  0  0  0  0  0  0  0  0
  -92.1903   32.6332   -5.2784 C   0  0  0  0  0  0  0  0  0  0  0  0
  -95.7522   33.8341   -4.9315 N   0  0  0  0  0  0  0  0  0  0  0  0
  -96.3549   32.7340   -4.2726 C   0  0  0  0  0  0  0  0  0  0  0  0
  -96.7406   33.1053   -2.8348 C   0  0  0  0  0  0  0  0  0  0  0  0
  -97.7524   34.1044   -2.8857 N   0  0  0  0  0  0  0  0  0  0  0  0
  -97.7675   34.8401   -4.1594 C   0  0  0  0  0  0  0  0  0  0  0  0
  -96.2989   35.0841   -4.5123 C   0  0  0  0  0  0  0  0  0  0  0  0
  -97.6861   35.0759   -1.8285 C   0  0  0  0  0  0  0  0  0  0  0  0
  -96.5963   34.8798   -0.8351 C   0  0  0  0  0  0  0  0  0  0  0  0
  -95.5577   35.7768   -0.9061 O   0  0  0  0  0  0  0  0  0  0  0  0
  -95.7112   36.4594   -0.2039 H   0  0  0  0  0  0  0  0  0  0  0  0
  -87.7225   37.2165   -3.5259 C   0  0  0  0  0  0  0  0  0  0  0  0
  -87.2664   35.9960   -4.0694 O   0  0  0  0  0  0  0  0  0  0  0  0
  -86.2266   33.6469   -3.0868 N   0  0  0  0  0  0  0  0  0  0  0  0
  -85.5011   34.0917   -3.7871 H   0  0  0  0  0  0  0  0  0  0  0  0
  -85.6445   33.1754   -1.9214 C   0  0  0  0  0  0  0  0  0  0  0  0
  -84.3195   33.5361   -1.7231 N   0  0  0  0  0  0  0  0  0  0  0  0
  -83.6258   33.1493   -0.6572 C   0  0  0  0  0  0  0  0  0  0  0  0
  -84.1993   32.3643    0.3100 C   0  0  0  0  0  0  0  0  0  0  0  0
  -83.2304   31.8944    1.6867 Cl  0  0  0  0  0  0  0  0  0  0  0  0
  -85.5371   31.9789    0.1488 C   0  0  0  0  0  0  0  0  0  0  0  0
  -86.1479   32.4207   -0.9592 N   0  0  0  0  0  0  0  0  0  0  0  0
  -86.0476   31.1274    1.1416 N   0  0  0  0  0  0  0  0  0  0  0  0
  -86.8254   31.5682    1.7410 H   0  0  0  0  0  0  0  0  0  0  0  0
  -85.7248   29.8114    1.4869 C   0  0  0  0  0  0  0  0  0  0  0  0
  -84.7104   29.4785    2.3764 C   0  0  0  0  0  0  0  0  0  0  0  0
  -84.4308   28.1524    2.6278 C   0  0  0  0  0  0  0  0  0  0  0  0
  -85.1160   27.1276    2.0320 C   0  0  0  0  0  0  0  0  0  0  0  0
  -86.1330   27.4985    1.1383 C   0  0  0  0  0  0  0  0  0  0  0  0
  -86.4558   28.7932    0.8496 C   0  0  0  0  0  0  0  0  0  0  0  0
  -87.7327   29.1043   -0.2576 S   0  0  0  0  0  0  0  0  0  0  0  0
  -88.5388   30.2609    0.2741 O   0  0  0  0  0  0  0  0  0  0  0  0
  -87.3504   29.3347   -1.6711 O   0  0  0  0  0  0  0  0  0  0  0  0
  -88.8497   27.6957   -0.2939 C   0  0  0  0  0  0  0  0  0  0  0  0
  -90.2425   28.3092   -0.5331 C   0  0  0  0  0  0  0  0  0  0  0  0
  -88.6014   26.7842   -1.4468 C   0  0  0  0  0  0  0  0  0  0  0  0
 23 24  1  0  0  0
 24  1  1  0  0  0
  1  2  2  0  0  0
  2  3  1  0  0  0
  3  4  2  0  0  0
  4  5  1  0  0  0
  5  6  2  0  0  0
  6 25  1  0  0  0
 25 27  1  0  0  0
 27 28  2  0  0  0
 28 29  1  0  0  0
 29 30  2  0  0  0
 30 31  1  0  0  0
 30 32  1  0  0  0
 32 34  1  0  0  0
 34 36  1  0  0  0
 36 37  2  0  0  0
 37 38  1  0  0  0
 38 39  2  0  0  0
 39 40  1  0  0  0
 40 41  2  0  0  0
 41 42  1  0  0  0
 42 43  2  0  0  0
 42 44  2  0  0  0
 42 45  1  0  0  0
 45 46  1  0  0  0
 45 47  1  0  0  0
 32 33  2  0  0  0
  3  7  1  0  0  0
  7  8  1  0  0  0
  8  9  1  0  0  0
  9 10  1  0  0  0
 10 11  1  0  0  0
 11 12  1  0  0  0
 10 13  1  0  0  0
 13 14  1  0  0  0
 14 15  1  0  0  0
 15 16  1  0  0  0
 16 19  1  0  0  0
 19 20  1  0  0  0
 20 21  1  0  0  0
 16 17  1  0  0  0
 17 18  1  0  0  0
  6  1  1  0  0  0
 33 27  1  0  0  0
 12  7  1  0  0  0
 18 13  1  0  0  0
 41 36  1  0  0  0
 25 26  1  0  0  0
 34 35  1  0  0  0
 21 22  1  0  0  0
M  END
> <minimizedAffinity>
-7.40165

> <CNNscore>
0.4709930122

> <CNNaffinity>
7.6267585754

> <CNN_VS>
3.5921499729

> <CNNaffinity_variance>
0.0317568891

$$$$
[H]OC([H])([H])C([H])([H])N1C([H])([H])C([H])([H])N(C2([H])C([H])([H])C([H])([H])N(c3c([H])c([H])c(N([H])c4nc([H])c(Cl)c(N([H])c5c([H])c([H])c([H])c([H])c5S(=O)(=O)C([H])(C([H])([H])[H])C([H])([H])[H])n4)c(OC([H])([H])[H])c3[H])C([H])([H])C2([H])[H])C([H])([H])C1([H])[H]


 47 51  0  0  0  0  0  0  0  0999 V2000
  -92.0022   29.4261   -1.8412 C   0  0  0  0  0  0  0  0  0  0  0  0
  -92.7145   28.2621   -1.9826 C   0  0  0  0  0  0  0  0  0  0  0  0
  -93.1237   27.8031   -3.2104 C   0  0  0  0  0  0  0  0  0  0  0  0
  -92.7737   28.5834   -4.2876 C   0  0  0  0  0  0  0  0  0  0  0  0
  -92.0538   29.7682   -4.1832 C   0  0  0  0  0  0  0  0  0  0  0  0
  -91.6600   30.1993   -2.9497 C   0  0  0  0  0  0  0  0  0  0  0  0
  -93.8829   26.6281   -3.4341 N   0  0  0  0  0  0  0  0  0  0  0  0
  -94.6991   26.1013   -2.3790 C   0  0  0  0  0  0  0  0  0  0  0  0
  -94.6605   24.6040   -2.2683 C   0  0  0  0  0  0  0  0  0  0  0  0
  -94.7993   23.9797   -3.6424 C   0  0  0  0  0  0  0  0  0  0  0  0
  -93.7586   24.4431   -4.5933 C   0  0  0  0  0  0  0  0  0  0  0  0
  -93.8186   25.9726   -4.7003 C   0  0  0  0  0  0  0  0  0  0  0  0
  -94.9833   22.5837   -3.5134 N   0  0  0  0  0  0  0  0  0  0  0  0
  -96.1782   22.0155   -4.0205 C   0  0  0  0  0  0  0  0  0  0  0  0
  -95.9007   21.2179   -5.3014 C   0  0  0  0  0  0  0  0  0  0  0  0
  -95.0763   20.1070   -4.9683 N   0  0  0  0  0  0  0  0  0  0  0  0
  -94.3287   20.3033   -3.7168 C   0  0  0  0  0  0  0  0  0  0  0  0
  -93.8455   21.7546   -3.7483 C   0  0  0  0  0  0  0  0  0  0  0  0
  -94.1269   19.7422   -5.9838 C   0  0  0  0  0  0  0  0  0  0  0  0
  -94.3057   18.3929   -6.5840 C   0  0  0  0  0  0  0  0  0  0  0  0
  -95.3503   18.2685   -7.4682 O   0  0  0  0  0  0  0  0  0  0  0  0
  -94.9703   18.3307   -8.3817 H   0  0  0  0  0  0  0  0  0  0  0  0
  -91.1141   28.9113    0.3625 C   0  0  0  0  0  0  0  0  0  0  0  0
  -91.6118   29.8467   -0.5705 O   0  0  0  0  0  0  0  0  0  0  0  0
  -90.9183   31.3858   -2.7419 N   0  0  0  0  0  0  0  0  0  0  0  0
  -91.4639   32.3126   -2.9825 H   0  0  0  0  0  0  0  0  0  0  0  0
  -89.6296   31.6114   -2.2863 C   0  0  0  0  0  0  0  0  0  0  0  0
  -89.1279   32.8856   -2.5100 N   0  0  0  0  0  0  0  0  0  0  0  0
  -87.9034   33.2462   -2.1392 C   0  0  0  0  0  0  0  0  0  0  0  0
  -87.0686   32.3601   -1.5079 C   0  0  0  0  0  0  0  0  0  0  0  0
  -85.4724   32.9016   -1.0453 Cl  0  0  0  0  0  0  0  0  0  0  0  0
  -87.5375   31.0626   -1.2614 C   0  0  0  0  0  0  0  0  0  0  0  0
  -88.7850   30.7990   -1.6738 N   0  0  0  0  0  0  0  0  0  0  0  0
  -86.6154   30.1864   -0.6668 N   0  0  0  0  0  0  0  0  0  0  0  0
  -85.6254   30.5955   -0.5621 H   0  0  0  0  0  0  0  0  0  0  0  0
  -86.7571   28.8805   -0.1876 C   0  0  0  0  0  0  0  0  0  0  0  0
  -87.5039   27.9029   -0.8339 C   0  0  0  0  0  0  0  0  0  0  0  0
  -87.6255   26.6516   -0.2688 C   0  0  0  0  0  0  0  0  0  0  0  0
  -87.0361   26.3186    0.9214 C   0  0  0  0  0  0  0  0  0  0  0  0
  -86.2903   27.3292    1.5484 C   0  0  0  0  0  0  0  0  0  0  0  0
  -86.1337   28.5857    1.0379 C   0  0  0  0  0  0  0  0  0  0  0  0
  -85.1835   29.7235    1.9071 S   0  0  0  0  0  0  0  0  0  0  0  0
  -85.7362   31.0980    1.6330 O   0  0  0  0  0  0  0  0  0  0  0  0
  -85.0360   29.4964    3.3646 O   0  0  0  0  0  0  0  0  0  0  0  0
  -83.5070   29.7237    1.2570 C   0  0  0  0  0  0  0  0  0  0  0  0
  -83.0525   31.1926    1.3524 C   0  0  0  0  0  0  0  0  0  0  0  0
  -82.5547   28.9460    2.0997 C   0  0  0  0  0  0  0  0  0  0  0  0
 23 24  1  0  0  0
 24  1  1  0  0  0
  1  2  2  0  0  0
  2  3  1  0  0  0
  3  4  2  0  0  0
  4  5  1  0  0  0
  5  6  2  0  0  0
  6 25  1  0  0  0
 25 27  1  0  0  0
 27 28  2  0  0  0
 28 29  1  0  0  0
 29 30  2  0  0  0
 30 31  1  0  0  0
 30 32  1  0  0  0
 32 34  1  0  0  0
 34 36  1  0  0  0
 36 37  2  0  0  0
 37 38  1  0  0  0
 38 39  2  0  0  0
 39 40  1  0  0  0
 40 41  2  0  0  0
 41 42  1  0  0  0
 42 43  2  0  0  0
 42 44  2  0  0  0
 42 45  1  0  0  0
 45 46  1  0  0  0
 45 47  1  0  0  0
 32 33  2  0  0  0
  3  7  1  0  0  0
  7  8  1  0  0  0
  8  9  1  0  0  0
  9 10  1  0  0  0
 10 11  1  0  0  0
 11 12  1  0  0  0
 10 13  1  0  0  0
 13 14  1  0  0  0
 14 15  1  0  0  0
 15 16  1  0  0  0
 16 19  1  0  0  0
 19 20  1  0  0  0
 20 21  1  0  0  0
 16 17  1  0  0  0
 17 18  1  0  0  0
  6  1  1  0  0  0
 33 27  1  0  0  0
 12  7  1  0  0  0
 18 13  1  0  0  0
 41 36  1  0  0  0
 25 26  1  0  0  0
 34 35  1  0  0  0
 21 22  1  0  0  0
M  END
> <minimizedAffinity>
-7.35297

> <CNNscore>
0.1161116585

> <CNNaffinity>
6.6720247269

> <CNN_VS>
0.7746998668

> <CNNaffinity_variance>
0.2289993465

$$$$
[H]OC([H])([H])C([H])([H])N1C([H])([H])C([H])([H])N(C2([H])C([H])([H])C([H])([H])N(c3c([H])c([H])c(N([H])c4nc([H])c(Cl)c(N([H])c5c([H])c([H])c([H])c([H])c5S(=O)(=O)C([H])(C([H])([H])[H])C([H])([H])[H])n4)c(OC([H])([H])[H])c3[H])C([H])([H])C2([H])[H])C([H])([H])C1([H])[H]


 47 51  0  0  0  0  0  0  0  0999 V2000
  -87.5531   32.4129   -3.4030 C   0  0  0  0  0  0  0  0  0  0  0  0
  -87.8994   31.3181   -2.6520 C   0  0  0  0  0  0  0  0  0  0  0  0
  -87.5906   31.2231   -1.3173 C   0  0  0  0  0  0  0  0  0  0  0  0
  -86.9136   32.2942   -0.7824 C   0  0  0  0  0  0  0  0  0  0  0  0
  -86.5456   33.4192   -1.5117 C   0  0  0  0  0  0  0  0  0  0  0  0
  -86.8666   33.4859   -2.8365 C   0  0  0  0  0  0  0  0  0  0  0  0
  -87.8899   30.1171   -0.4842 N   0  0  0  0  0  0  0  0  0  0  0  0
  -86.8276   29.2726   -0.0202 C   0  0  0  0  0  0  0  0  0  0  0  0
  -87.1614   27.8084   -0.0371 C   0  0  0  0  0  0  0  0  0  0  0  0
  -88.5422   27.5855    0.5469 C   0  0  0  0  0  0  0  0  0  0  0  0
  -89.5973   28.3526   -0.1605 C   0  0  0  0  0  0  0  0  0  0  0  0
  -89.2444   29.8454   -0.1256 C   0  0  0  0  0  0  0  0  0  0  0  0
  -88.7618   26.2010    0.7318 N   0  0  0  0  0  0  0  0  0  0  0  0
  -89.2291   25.7594    1.9945 C   0  0  0  0  0  0  0  0  0  0  0  0
  -90.7008   25.3338    1.9118 C   0  0  0  0  0  0  0  0  0  0  0  0
  -90.7911   24.1935    1.0655 N   0  0  0  0  0  0  0  0  0  0  0  0
  -89.6490   24.0702    0.1466 C   0  0  0  0  0  0  0  0  0  0  0  0
  -89.3635   25.4892   -0.3491 C   0  0  0  0  0  0  0  0  0  0  0  0
  -91.9890   24.1307    0.2738 C   0  0  0  0  0  0  0  0  0  0  0  0
  -92.8296   22.9184    0.4646 C   0  0  0  0  0  0  0  0  0  0  0  0
  -93.9378   23.0818    1.2606 O   0  0  0  0  0  0  0  0  0  0  0  0
  -94.7165   23.2000    0.6585 H   0  0  0  0  0  0  0  0  0  0  0  0
  -89.2461   32.5371   -5.1432 C   0  0  0  0  0  0  0  0  0  0  0  0
  -87.8911   32.4577   -4.7549 O   0  0  0  0  0  0  0  0  0  0  0  0
  -86.5432   34.5902   -3.6593 N   0  0  0  0  0  0  0  0  0  0  0  0
  -85.4859   34.6353   -3.9671 H   0  0  0  0  0  0  0  0  0  0  0  0
  -87.3048   35.6326   -4.1617 C   0  0  0  0  0  0  0  0  0  0  0  0
  -87.7804   36.5363   -3.2223 N   0  0  0  0  0  0  0  0  0  0  0  0
  -88.5335   37.5804   -3.5532 C   0  0  0  0  0  0  0  0  0  0  0  0
  -88.8787   37.8147   -4.8595 C   0  0  0  0  0  0  0  0  0  0  0  0
  -89.8693   39.2078   -5.2243 Cl  0  0  0  0  0  0  0  0  0  0  0  0
  -88.4174   36.9262   -5.8403 C   0  0  0  0  0  0  0  0  0  0  0  0
  -87.6655   35.9062   -5.4042 N   0  0  0  0  0  0  0  0  0  0  0  0
  -88.8540   37.1864   -7.1492 N   0  0  0  0  0  0  0  0  0  0  0  0
  -89.7863   36.7123   -7.4036 H   0  0  0  0  0  0  0  0  0  0  0  0
  -88.2929   37.9511   -8.1765 C   0  0  0  0  0  0  0  0  0  0  0  0
  -87.0806   38.6204   -8.0604 C   0  0  0  0  0  0  0  0  0  0  0  0
  -86.6210   39.3875   -9.1092 C   0  0  0  0  0  0  0  0  0  0  0  0
  -87.3141   39.5259  -10.2819 C   0  0  0  0  0  0  0  0  0  0  0  0
  -88.5349   38.8379  -10.3658 C   0  0  0  0  0  0  0  0  0  0  0  0
  -89.0411   38.0636   -9.3618 C   0  0  0  0  0  0  0  0  0  0  0  0
  -90.5450   37.2680   -9.6035 S   0  0  0  0  0  0  0  0  0  0  0  0
  -90.7660   37.1305  -11.0876 O   0  0  0  0  0  0  0  0  0  0  0  0
  -90.7291   35.9651   -8.9209 O   0  0  0  0  0  0  0  0  0  0  0  0
  -91.8781   38.3114   -8.9975 C   0  0  0  0  0  0  0  0  0  0  0  0
  -92.3974   37.5887   -7.7400 C   0  0  0  0  0  0  0  0  0  0  0  0
  -91.4081   39.6483   -8.5354 C   0  0  0  0  0  0  0  0  0  0  0  0
 23 24  1  0  0  0
 24  1  1  0  0  0
  1  2  2  0  0  0
  2  3  1  0  0  0
  3  4  2  0  0  0
  4  5  1  0  0  0
  5  6  2  0  0  0
  6 25  1  0  0  0
 25 27  1  0  0  0
 27 28  2  0  0  0
 28 29  1  0  0  0
 29 30  2  0  0  0
 30 31  1  0  0  0
 30 32  1  0  0  0
 32 34  1  0  0  0
 34 36  1  0  0  0
 36 37  2  0  0  0
 37 38  1  0  0  0
 38 39  2  0  0  0
 39 40  1  0  0  0
 40 41  2  0  0  0
 41 42  1  0  0  0
 42 43  2  0  0  0
 42 44  2  0  0  0
 42 45  1  0  0  0
 45 46  1  0  0  0
 45 47  1  0  0  0
 32 33  2  0  0  0
  3  7  1  0  0  0
  7  8  1  0  0  0
  8  9  1  0  0  0
  9 10  1  0  0  0
 10 11  1  0  0  0
 11 12  1  0  0  0
 10 13  1  0  0  0
 13 14  1  0  0  0
 14 15  1  0  0  0
 15 16  1  0  0  0
 16 19  1  0  0  0
 19 20  1  0  0  0
 20 21  1  0  0  0
 16 17  1  0  0  0
 17 18  1  0  0  0
  6  1  1  0  0  0
 33 27  1  0  0  0
 12  7  1  0  0  0
 18 13  1  0  0  0
 41 36  1  0  0  0
 25 26  1  0  0  0
 34 35  1  0  0  0
 21 22  1  0  0  0
M  END
> <minimizedAffinity>
-7.50853

> <CNNscore>
0.0610448979

> <CNNaffinity>
6.4431710243

> <CNN_VS>
0.3933227062

> <CNNaffinity_variance>
0.1942498684

$$$$
[H]OC([H])([H])C([H])([H])N1C([H])([H])C([H])([H])N(C2([H])C([H])([H])C([H])([H])N(c3c([H])c([H])c(N([H])c4nc([H])c(Cl)c(N([H])c5c([H])c([H])c([H])c([H])c5S(=O)(=O)C([H])(C([H])([H])[H])C([H])([H])[H])n4)c(OC([H])([H])[H])c3[H])C([H])([H])C2([H])[H])C([H])([H])C1([H])[H]


 47 51  0  0  0  0  0  0  0  0999 V2000
  -88.6702   26.7275    1.3302 C   0  0  0  0  0  0  0  0  0  0  0  0
  -89.6589   25.8767    0.9047 C   0  0  0  0  0  0  0  0  0  0  0  0
  -89.6678   25.3458   -0.3617 C   0  0  0  0  0  0  0  0  0  0  0  0
  -88.6235   25.7205   -1.1746 C   0  0  0  0  0  0  0  0  0  0  0  0
  -87.6050   26.5802   -0.7789 C   0  0  0  0  0  0  0  0  0  0  0  0
  -87.6222   27.0920    0.4861 C   0  0  0  0  0  0  0  0  0  0  0  0
  -90.6650   24.4842   -0.8815 N   0  0  0  0  0  0  0  0  0  0  0  0
  -91.7870   25.0408   -1.5803 C   0  0  0  0  0  0  0  0  0  0  0  0
  -93.0961   24.3804   -1.2549 C   0  0  0  0  0  0  0  0  0  0  0  0
  -92.9343   22.8735   -1.2730 C   0  0  0  0  0  0  0  0  0  0  0  0
  -91.8823   22.3962   -0.3416 C   0  0  0  0  0  0  0  0  0  0  0  0
  -90.5516   23.0739   -0.6941 C   0  0  0  0  0  0  0  0  0  0  0  0
  -94.2045   22.2584   -1.1854 N   0  0  0  0  0  0  0  0  0  0  0  0
  -94.5640   21.6341    0.0347 C   0  0  0  0  0  0  0  0  0  0  0  0
  -95.6199   22.4616    0.7791 C   0  0  0  0  0  0  0  0  0  0  0  0
  -96.8126   22.4694    0.0031 N   0  0  0  0  0  0  0  0  0  0  0  0
  -96.5728   22.1786   -1.4187 C   0  0  0  0  0  0  0  0  0  0  0  0
  -95.3011   22.9451   -1.7878 C   0  0  0  0  0  0  0  0  0  0  0  0
  -97.5614   23.6943    0.0714 C   0  0  0  0  0  0  0  0  0  0  0  0
  -96.9862   24.7585    0.9372 C   0  0  0  0  0  0  0  0  0  0  0  0
  -96.4441   25.8347    0.2766 O   0  0  0  0  0  0  0  0  0  0  0  0
  -97.1202   26.5596    0.2927 H   0  0  0  0  0  0  0  0  0  0  0  0
  -89.4715   26.5868    3.6211 C   0  0  0  0  0  0  0  0  0  0  0  0
  -88.7099   27.2384    2.6269 O   0  0  0  0  0  0  0  0  0  0  0  0
  -86.6282   27.9668    0.9836 N   0  0  0  0  0  0  0  0  0  0  0  0
  -86.0472   27.5634    1.8287 H   0  0  0  0  0  0  0  0  0  0  0  0
  -86.2364   29.2416    0.6087 C   0  0  0  0  0  0  0  0  0  0  0  0
  -84.8883   29.5278    0.7704 N   0  0  0  0  0  0  0  0  0  0  0  0
  -84.3679   30.7121    0.4647 C   0  0  0  0  0  0  0  0  0  0  0  0
  -85.1535   31.7198   -0.0332 C   0  0  0  0  0  0  0  0  0  0  0  0
  -84.4034   33.2512   -0.4166 Cl  0  0  0  0  0  0  0  0  0  0  0  0
  -86.5211   31.4714   -0.2135 C   0  0  0  0  0  0  0  0  0  0  0  0
  -86.9467   30.2465    0.1245 N   0  0  0  0  0  0  0  0  0  0  0  0
  -87.2811   32.5605   -0.6692 N   0  0  0  0  0  0  0  0  0  0  0  0
  -87.7466   33.1306    0.1162 H   0  0  0  0  0  0  0  0  0  0  0  0
  -87.5381   33.0334   -1.9597 C   0  0  0  0  0  0  0  0  0  0  0  0
  -86.7197   33.9406   -2.6215 C   0  0  0  0  0  0  0  0  0  0  0  0
  -87.0710   34.3873   -3.8773 C   0  0  0  0  0  0  0  0  0  0  0  0
  -88.2091   33.9737   -4.5163 C   0  0  0  0  0  0  0  0  0  0  0  0
  -89.0139   33.0584   -3.8197 C   0  0  0  0  0  0  0  0  0  0  0  0
  -88.7184   32.5803   -2.5756 C   0  0  0  0  0  0  0  0  0  0  0  0
  -89.7889   31.4537   -1.8422 S   0  0  0  0  0  0  0  0  0  0  0  0
  -89.8529   31.7630   -0.3690 O   0  0  0  0  0  0  0  0  0  0  0  0
  -91.1508   31.3531   -2.4187 O   0  0  0  0  0  0  0  0  0  0  0  0
  -89.0972   29.7990   -1.9726 C   0  0  0  0  0  0  0  0  0  0  0  0
  -90.3102   28.8907   -2.2501 C   0  0  0  0  0  0  0  0  0  0  0  0
  -88.1893   29.6372   -3.1435 C   0  0  0  0  0  0  0  0  0  0  0  0
 23 24  1  0  0  0
 24  1  1  0  0  0
  1  2  2  0  0  0
  2  3  1  0  0  0
  3  4  2  0  0  0
  4  5  1  0  0  0
  5  6  2  0  0  0
  6 25  1  0  0  0
 25 27  1  0  0  0
 27 28  2  0  0  0
 28 29  1  0  0  0
 29 30  2  0  0  0
 30 31  1  0  0  0
 30 32  1  0  0  0
 32 34  1  0  0  0
 34 36  1  0  0  0
 36 37  2  0  0  0
 37 38  1  0  0  0
 38 39  2  0  0  0
 39 40  1  0  0  0
 40 41  2  0  0  0
 41 42  1  0  0  0
 42 43  2  0  0  0
 42 44  2  0  0  0
 42 45  1  0  0  0
 45 46  1  0  0  0
 45 47  1  0  0  0
 32 33  2  0  0  0
  3  7  1  0  0  0
  7  8  1  0  0  0
  8  9  1  0  0  0
  9 10  1  0  0  0
 10 11  1  0  0  0
 11 12  1  0  0  0
 10 13  1  0  0  0
 13 14  1  0  0  0
 14 15  1  0  0  0
 15 16  1  0  0  0
 16 19  1  0  0  0
 19 20  1  0  0  0
 20 21  1  0  0  0
 16 17  1  0  0  0
 17 18  1  0  0  0
  6  1  1  0  0  0
 33 27  1  0  0  0
 12  7  1  0  0  0
 18 13  1  0  0  0
 41 36  1  0  0  0
 25 26  1  0  0  0
 34 35  1  0  0  0
 21 22  1  0  0  0
M  END
> <minimizedAffinity>
-7.54760

> <CNNscore>
0.0573417395

> <CNNaffinity>
6.8569936752

> <CNN_VS>
0.3931919336

> <CNNaffinity_variance>
0.2737193406

$$$$
[H]OC([H])([H])C([H])([H])N1C([H])([H])C([H])([H])N(C2([H])C([H])([H])C([H])([H])N(c3c([H])c([H])c(N([H])c4nc([H])c(Cl)c(N([H])c5c([H])c([H])c([H])c([H])c5S(=O)(=O)C([H])(C([H])([H])[H])C([H])([H])[H])n4)c(OC([H])([H])[H])c3[H])C([H])([H])C2([H])[H])C([H])([H])C1([H])[H]


 47 51  0  0  0  0  0  0  0  0999 V2000
  -88.6837   26.9743    1.2756 C   0  0  0  0  0  0  0  0  0  0  0  0
  -89.8323   26.2672    1.0247 C   0  0  0  0  0  0  0  0  0  0  0  0
  -90.0636   25.6585   -0.1844 C   0  0  0  0  0  0  0  0  0  0  0  0
  -89.0712   25.8023   -1.1258 C   0  0  0  0  0  0  0  0  0  0  0  0
  -87.8952   26.5113   -0.9082 C   0  0  0  0  0  0  0  0  0  0  0  0
  -87.6927   27.1053    0.3037 C   0  0  0  0  0  0  0  0  0  0  0  0
  -91.2328   24.9357   -0.5270 N   0  0  0  0  0  0  0  0  0  0  0  0
  -92.2840   24.7915    0.4380 C   0  0  0  0  0  0  0  0  0  0  0  0
  -92.9045   23.4240    0.4634 C   0  0  0  0  0  0  0  0  0  0  0  0
  -93.1800   22.9543   -0.9510 C   0  0  0  0  0  0  0  0  0  0  0  0
  -91.9635   22.9415   -1.8008 C   0  0  0  0  0  0  0  0  0  0  0  0
  -91.3486   24.3471   -1.8221 C   0  0  0  0  0  0  0  0  0  0  0  0
  -93.9583   21.7743   -0.9165 N   0  0  0  0  0  0  0  0  0  0  0  0
  -95.2270   21.7896   -1.5473 C   0  0  0  0  0  0  0  0  0  0  0  0
  -95.1991   20.9729   -2.8458 C   0  0  0  0  0  0  0  0  0  0  0  0
  -94.9691   19.6087   -2.5127 N   0  0  0  0  0  0  0  0  0  0  0  0
  -94.3330   19.4396   -1.1972 C   0  0  0  0  0  0  0  0  0  0  0  0
  -93.2715   20.5379   -1.1081 C   0  0  0  0  0  0  0  0  0  0  0  0
  -94.1771   18.8858   -3.4697 C   0  0  0  0  0  0  0  0  0  0  0  0
  -93.8753   19.6044   -4.7367 C   0  0  0  0  0  0  0  0  0  0  0  0
  -92.5616   19.9647   -4.9181 O   0  0  0  0  0  0  0  0  0  0  0  0
  -92.1522   19.2889   -5.5167 H   0  0  0  0  0  0  0  0  0  0  0  0
  -89.4944   27.4562    3.5163 C   0  0  0  0  0  0  0  0  0  0  0  0
  -88.4998   27.5733    2.5211 O   0  0  0  0  0  0  0  0  0  0  0  0
  -86.5270   27.8401    0.6234 N   0  0  0  0  0  0  0  0  0  0  0  0
  -85.7702   27.2717    1.1881 H   0  0  0  0  0  0  0  0  0  0  0  0
  -86.1463   29.1455    0.3583 C   0  0  0  0  0  0  0  0  0  0  0  0
  -84.8073   29.4367    0.5759 N   0  0  0  0  0  0  0  0  0  0  0  0
  -84.2983   30.6483    0.3760 C   0  0  0  0  0  0  0  0  0  0  0  0
  -85.0874   31.6807   -0.0622 C   0  0  0  0  0  0  0  0  0  0  0  0
  -84.3524   33.2475   -0.3068 Cl  0  0  0  0  0  0  0  0  0  0  0  0
  -86.4461   31.4283   -0.2958 C   0  0  0  0  0  0  0  0  0  0  0  0
  -86.8605   30.1750   -0.0645 N   0  0  0  0  0  0  0  0  0  0  0  0
  -87.2119   32.5389   -0.6851 N   0  0  0  0  0  0  0  0  0  0  0  0
  -87.6765   33.0607    0.1337 H   0  0  0  0  0  0  0  0  0  0  0  0
  -87.4755   33.0846   -1.9451 C   0  0  0  0  0  0  0  0  0  0  0  0
  -86.6457   34.0073   -2.5705 C   0  0  0  0  0  0  0  0  0  0  0  0
  -87.0037   34.5270   -3.7959 C   0  0  0  0  0  0  0  0  0  0  0  0
  -88.1595   34.1728   -4.4389 C   0  0  0  0  0  0  0  0  0  0  0  0
  -88.9753   33.2400   -3.7794 C   0  0  0  0  0  0  0  0  0  0  0  0
  -88.6740   32.6906   -2.5665 C   0  0  0  0  0  0  0  0  0  0  0  0
  -89.7597   31.5507   -1.8775 S   0  0  0  0  0  0  0  0  0  0  0  0
  -89.8033   31.7889   -0.3904 O   0  0  0  0  0  0  0  0  0  0  0  0
  -91.1289   31.5050   -2.4437 O   0  0  0  0  0  0  0  0  0  0  0  0
  -89.1027   29.8912   -2.0955 C   0  0  0  0  0  0  0  0  0  0  0  0
  -90.3297   29.0302   -2.4513 C   0  0  0  0  0  0  0  0  0  0  0  0
  -88.1747   29.7793   -3.2566 C   0  0  0  0  0  0  0  0  0  0  0  0
 23 24  1  0  0  0
 24  1  1  0  0  0
  1  2  2  0  0  0
  2  3  1  0  0  0
  3  4  2  0  0  0
  4  5  1  0  0  0
  5  6  2  0  0  0
  6 25  1  0  0  0
 25 27  1  0  0  0
 27 28  2  0  0  0
 28 29  1  0  0  0
 29 30  2  0  0  0
 30 31  1  0  0  0
 30 32  1  0  0  0
 32 34  1  0  0  0
 34 36  1  0  0  0
 36 37  2  0  0  0
 37 38  1  0  0  0
 38 39  2  0  0  0
 39 40  1  0  0  0
 40 41  2  0  0  0
 41 42  1  0  0  0
 42 43  2  0  0  0
 42 44  2  0  0  0
 42 45  1  0  0  0
 45 46  1  0  0  0
 45 47  1  0  0  0
 32 33  2  0  0  0
  3  7  1  0  0  0
  7  8  1  0  0  0
  8  9  1  0  0  0
  9 10  1  0  0  0
 10 11  1  0  0  0
 11 12  1  0  0  0
 10 13  1  0  0  0
 13 14  1  0  0  0
 14 15  1  0  0  0
 15 16  1  0  0  0
 16 19  1  0  0  0
 19 20  1  0  0  0
 20 21  1  0  0  0
 16 17  1  0  0  0
 17 18  1  0  0  0
  6  1  1  0  0  0
 33 27  1  0  0  0
 12  7  1  0  0  0
 18 13  1  0  0  0
 41 36  1  0  0  0
 25 26  1  0  0  0
 34 35  1  0  0  0
 21 22  1  0  0  0
M  END
> <minimizedAffinity>
-7.76047

> <CNNscore>
0.0565987639

> <CNNaffinity>
6.8489074707

> <CNN_VS>
0.3876397014

> <CNNaffinity_variance>
0.1946998537

$$$$
[H]OC([H])([H])C([H])([H])N1C([H])([H])C([H])([H])N(C2([H])C([H])([H])C([H])([H])N(c3c([H])c([H])c(N([H])c4nc([H])c(Cl)c(N([H])c5c([H])c([H])c([H])c([H])c5S(=O)(=O)C([H])(C([H])([H])[H])C([H])([H])[H])n4)c(OC([H])([H])[H])c3[H])C([H])([H])C2([H])[H])C([H])([H])C1([H])[H]


 47 51  0  0  0  0  0  0  0  0999 V2000
  -87.3233   32.6181   -2.2191 C   0  0  0  0  0  0  0  0  0  0  0  0
  -87.7743   31.4724   -1.6138 C   0  0  0  0  0  0  0  0  0  0  0  0
  -88.3905   30.4692   -2.3208 C   0  0  0  0  0  0  0  0  0  0  0  0
  -88.5256   30.6860   -3.6722 C   0  0  0  0  0  0  0  0  0  0  0  0
  -88.0821   31.8335   -4.3199 C   0  0  0  0  0  0  0  0  0  0  0  0
  -87.4727   32.8135   -3.5914 C   0  0  0  0  0  0  0  0  0  0  0  0
  -88.9053   29.2724   -1.7645 N   0  0  0  0  0  0  0  0  0  0  0  0
  -89.7812   29.3384   -0.6307 C   0  0  0  0  0  0  0  0  0  0  0  0
  -89.5191   28.2819    0.4041 C   0  0  0  0  0  0  0  0  0  0  0  0
  -89.3380   26.9346   -0.2661 C   0  0  0  0  0  0  0  0  0  0  0  0
  -88.2495   26.9350   -1.2748 C   0  0  0  0  0  0  0  0  0  0  0  0
  -88.5381   28.0134   -2.3275 C   0  0  0  0  0  0  0  0  0  0  0  0
  -89.3120   25.9161    0.7142 N   0  0  0  0  0  0  0  0  0  0  0  0
  -88.2212   25.8835    1.6180 C   0  0  0  0  0  0  0  0  0  0  0  0
  -88.6593   26.3375    3.0165 C   0  0  0  0  0  0  0  0  0  0  0  0
  -89.5888   25.3881    3.5256 N   0  0  0  0  0  0  0  0  0  0  0  0
  -90.2392   24.5992    2.4681 C   0  0  0  0  0  0  0  0  0  0  0  0
  -90.5502   25.5912    1.3456 C   0  0  0  0  0  0  0  0  0  0  0  0
  -90.6281   25.9497    4.3443 C   0  0  0  0  0  0  0  0  0  0  0  0
  -90.2973   27.2310    5.0238 C   0  0  0  0  0  0  0  0  0  0  0  0
  -89.8959   27.1236    6.3337 O   0  0  0  0  0  0  0  0  0  0  0  0
  -88.9058   27.1729    6.3420 H   0  0  0  0  0  0  0  0  0  0  0  0
  -85.6656   33.2625   -0.5616 C   0  0  0  0  0  0  0  0  0  0  0  0
  -86.7048   33.6058   -1.4536 O   0  0  0  0  0  0  0  0  0  0  0  0
  -86.9810   34.0119   -4.1598 N   0  0  0  0  0  0  0  0  0  0  0  0
  -85.8978   34.0094   -4.3627 H   0  0  0  0  0  0  0  0  0  0  0  0
  -87.6026   35.1969   -4.5183 C   0  0  0  0  0  0  0  0  0  0  0  0
  -87.1599   36.3323   -3.8548 N   0  0  0  0  0  0  0  0  0  0  0  0
  -87.6695   37.5382   -4.0848 C   0  0  0  0  0  0  0  0  0  0  0  0
  -88.6715   37.7163   -5.0039 C   0  0  0  0  0  0  0  0  0  0  0  0
  -89.2938   39.3297   -5.2585 Cl  0  0  0  0  0  0  0  0  0  0  0  0
  -89.1466   36.5949   -5.6976 C   0  0  0  0  0  0  0  0  0  0  0  0
  -88.5674   35.4254   -5.3934 N   0  0  0  0  0  0  0  0  0  0  0  0
  -90.2124   36.8333   -6.5800 N   0  0  0  0  0  0  0  0  0  0  0  0
  -90.8153   37.6863   -6.3203 H   0  0  0  0  0  0  0  0  0  0  0  0
  -90.6264   36.1599   -7.7333 C   0  0  0  0  0  0  0  0  0  0  0  0
  -91.1967   34.8928   -7.7190 C   0  0  0  0  0  0  0  0  0  0  0  0
  -91.5374   34.2838   -8.9077 C   0  0  0  0  0  0  0  0  0  0  0  0
  -91.3366   34.8772  -10.1252 C   0  0  0  0  0  0  0  0  0  0  0  0
  -90.7577   36.1559  -10.1042 C   0  0  0  0  0  0  0  0  0  0  0  0
  -90.4000   36.8091   -8.9600 C   0  0  0  0  0  0  0  0  0  0  0  0
  -89.7093   38.3781   -9.0800 S   0  0  0  0  0  0  0  0  0  0  0  0
  -90.7303   39.3747   -8.5958 O   0  0  0  0  0  0  0  0  0  0  0  0
  -88.4067   38.5884   -8.4045 O   0  0  0  0  0  0  0  0  0  0  0  0
  -89.4135   38.7709  -10.8096 C   0  0  0  0  0  0  0  0  0  0  0  0
  -90.3074   39.9939  -11.0896 C   0  0  0  0  0  0  0  0  0  0  0  0
  -88.0163   39.2168  -11.0756 C   0  0  0  0  0  0  0  0  0  0  0  0
 23 24  1  0  0  0
 24  1  1  0  0  0
  1  2  2  0  0  0
  2  3  1  0  0  0
  3  4  2  0  0  0
  4  5  1  0  0  0
  5  6  2  0  0  0
  6 25  1  0  0  0
 25 27  1  0  0  0
 27 28  2  0  0  0
 28 29  1  0  0  0
 29 30  2  0  0  0
 30 31  1  0  0  0
 30 32  1  0  0  0
 32 34  1  0  0  0
 34 36  1  0  0  0
 36 37  2  0  0  0
 37 38  1  0  0  0
 38 39  2  0  0  0
 39 40  1  0  0  0
 40 41  2  0  0  0
 41 42  1  0  0  0
 42 43  2  0  0  0
 42 44  2  0  0  0
 42 45  1  0  0  0
 45 46  1  0  0  0
 45 47  1  0  0  0
 32 33  2  0  0  0
  3  7  1  0  0  0
  7  8  1  0  0  0
  8  9  1  0  0  0
  9 10  1  0  0  0
 10 11  1  0  0  0
 11 12  1  0  0  0
 10 13  1  0  0  0
 13 14  1  0  0  0
 14 15  1  0  0  0
 15 16  1  0  0  0
 16 19  1  0  0  0
 19 20  1  0  0  0
 20 21  1  0  0  0
 16 17  1  0  0  0
 17 18  1  0  0  0
  6  1  1  0  0  0
 33 27  1  0  0  0
 12  7  1  0  0  0
 18 13  1  0  0  0
 41 36  1  0  0  0
 25 26  1  0  0  0
 34 35  1  0  0  0
 21 22  1  0  0  0
M  END
> <minimizedAffinity>
-7.79228

> <CNNscore>
0.0360751785

> <CNNaffinity>
6.3968372345

> <CNN_VS>
0.2307670414

> <CNNaffinity_variance>
0.1925961524

$$$$
[H]OC([H])([H])C([H])([H])N1C([H])([H])C([H])([H])N(C2([H])C([H])([H])C([H])([H])N(c3c([H])c([H])c(N([H])c4nc([H])c(Cl)c(N([H])c5c([H])c([H])c([H])c([H])c5S(=O)(=O)C([H])(C([H])([H])[H])C([H])([H])[H])n4)c(OC([H])([H])[H])c3[H])C([H])([H])C2([H])[H])C([H])([H])C1([H])[H]


 47 51  0  0  0  0  0  0  0  0999 V2000
  -89.5317   26.7240    0.5565 C   0  0  0  0  0  0  0  0  0  0  0  0
  -90.6445   25.9840    0.2458 C   0  0  0  0  0  0  0  0  0  0  0  0
  -90.8828   25.5261   -1.0267 C   0  0  0  0  0  0  0  0  0  0  0  0
  -89.9357   25.8557   -1.9680 C   0  0  0  0  0  0  0  0  0  0  0  0
  -88.7970   26.6036   -1.6908 C   0  0  0  0  0  0  0  0  0  0  0  0
  -88.5863   27.0447   -0.4167 C   0  0  0  0  0  0  0  0  0  0  0  0
  -92.0185   24.7814   -1.4297 N   0  0  0  0  0  0  0  0  0  0  0  0
  -92.6213   23.8580   -0.5127 C   0  0  0  0  0  0  0  0  0  0  0  0
  -93.0506   22.5646   -1.1440 C   0  0  0  0  0  0  0  0  0  0  0  0
  -93.7792   22.8401   -2.4443 C   0  0  0  0  0  0  0  0  0  0  0  0
  -92.9656   23.6259   -3.4049 C   0  0  0  0  0  0  0  0  0  0  0  0
  -92.5437   24.9461   -2.7466 C   0  0  0  0  0  0  0  0  0  0  0  0
  -94.3695   21.6466   -2.9200 N   0  0  0  0  0  0  0  0  0  0  0  0
  -95.7767   21.6135   -3.0824 C   0  0  0  0  0  0  0  0  0  0  0  0
  -96.1538   21.6409   -4.5693 C   0  0  0  0  0  0  0  0  0  0  0  0
  -95.6844   20.4412   -5.1733 N   0  0  0  0  0  0  0  0  0  0  0  0
  -94.5916   19.8092   -4.4182 C   0  0  0  0  0  0  0  0  0  0  0  0
  -93.6859   20.9562   -3.9655 C   0  0  0  0  0  0  0  0  0  0  0  0
  -95.2383   20.5912   -6.5313 C   0  0  0  0  0  0  0  0  0  0  0  0
  -94.6704   19.3715   -7.1658 C   0  0  0  0  0  0  0  0  0  0  0  0
  -95.3540   18.8962   -8.2591 O   0  0  0  0  0  0  0  0  0  0  0  0
  -94.8741   19.2144   -9.0661 H   0  0  0  0  0  0  0  0  0  0  0  0
  -89.0104   26.2410    2.8814 C   0  0  0  0  0  0  0  0  0  0  0  0
  -89.3387   27.1645    1.8652 O   0  0  0  0  0  0  0  0  0  0  0  0
  -87.4557   27.8042   -0.0347 N   0  0  0  0  0  0  0  0  0  0  0  0
  -86.6560   27.2198    0.4488 H   0  0  0  0  0  0  0  0  0  0  0  0
  -87.1535   29.1507   -0.1553 C   0  0  0  0  0  0  0  0  0  0  0  0
  -85.9523   29.5502    0.4130 N   0  0  0  0  0  0  0  0  0  0  0  0
  -85.5342   30.8116    0.3863 C   0  0  0  0  0  0  0  0  0  0  0  0
  -86.2837   31.7900   -0.2150 C   0  0  0  0  0  0  0  0  0  0  0  0
  -85.6727   33.4276   -0.2161 Cl  0  0  0  0  0  0  0  0  0  0  0  0
  -87.5035   31.4282   -0.8029 C   0  0  0  0  0  0  0  0  0  0  0  0
  -87.8347   30.1322   -0.7222 N   0  0  0  0  0  0  0  0  0  0  0  0
  -88.2512   32.4839   -1.3488 N   0  0  0  0  0  0  0  0  0  0  0  0
  -89.0182   32.8627   -0.6955 H   0  0  0  0  0  0  0  0  0  0  0  0
  -88.1743   33.1278   -2.5875 C   0  0  0  0  0  0  0  0  0  0  0  0
  -87.3276   34.1995   -2.8439 C   0  0  0  0  0  0  0  0  0  0  0  0
  -87.3466   34.8034   -4.0827 C   0  0  0  0  0  0  0  0  0  0  0  0
  -88.1753   34.3920   -5.0921 C   0  0  0  0  0  0  0  0  0  0  0  0
  -89.0183   33.3083   -4.7996 C   0  0  0  0  0  0  0  0  0  0  0  0
  -89.0443   32.6700   -3.5930 C   0  0  0  0  0  0  0  0  0  0  0  0
  -90.1205   31.3482   -3.3750 S   0  0  0  0  0  0  0  0  0  0  0  0
  -89.3426   30.0748   -3.5840 O   0  0  0  0  0  0  0  0  0  0  0  0
  -90.8726   31.3021   -2.0985 O   0  0  0  0  0  0  0  0  0  0  0  0
  -91.3758   31.3801   -4.6621 C   0  0  0  0  0  0  0  0  0  0  0  0
  -91.9142   29.9377   -4.7168 C   0  0  0  0  0  0  0  0  0  0  0  0
  -92.5437   32.2391   -4.3162 C   0  0  0  0  0  0  0  0  0  0  0  0
 23 24  1  0  0  0
 24  1  1  0  0  0
  1  2  2  0  0  0
  2  3  1  0  0  0
  3  4  2  0  0  0
  4  5  1  0  0  0
  5  6  2  0  0  0
  6 25  1  0  0  0
 25 27  1  0  0  0
 27 28  2  0  0  0
 28 29  1  0  0  0
 29 30  2  0  0  0
 30 31  1  0  0  0
 30 32  1  0  0  0
 32 34  1  0  0  0
 34 36  1  0  0  0
 36 37  2  0  0  0
 37 38  1  0  0  0
 38 39  2  0  0  0
 39 40  1  0  0  0
 40 41  2  0  0  0
 41 42  1  0  0  0
 42 43  2  0  0  0
 42 44  2  0  0  0
 42 45  1  0  0  0
 45 46  1  0  0  0
 45 47  1  0  0  0
 32 33  2  0  0  0
  3  7  1  0  0  0
  7  8  1  0  0  0
  8  9  1  0  0  0
  9 10  1  0  0  0
 10 11  1  0  0  0
 11 12  1  0  0  0
 10 13  1  0  0  0
 13 14  1  0  0  0
 14 15  1  0  0  0
 15 16  1  0  0  0
 16 19  1  0  0  0
 19 20  1  0  0  0
 20 21  1  0  0  0
 16 17  1  0  0  0
 17 18  1  0  0  0
  6  1  1  0  0  0
 33 27  1  0  0  0
 12  7  1  0  0  0
 18 13  1  0  0  0
 41 36  1  0  0  0
 25 26  1  0  0  0
 34 35  1  0  0  0
 21 22  1  0  0  0
M  END
> <minimizedAffinity>
-6.96518

> <CNNscore>
0.0357859433

> <CNNaffinity>
6.2995409966

> <CNN_VS>
0.2254350185

> <CNNaffinity_variance>
0.3760801256

$$$$
[H]OC([H])([H])C([H])([H])N1C([H])([H])C([H])([H])N(C2([H])C([H])([H])C([H])([H])N(c3c([H])c([H])c(N([H])c4nc([H])c(Cl)c(N([H])c5c([H])c([H])c([H])c([H])c5S(=O)(=O)C([H])(C([H])([H])[H])C([H])([H])[H])n4)c(OC([H])([H])[H])c3[H])C([H])([H])C2([H])[H])C([H])([H])C1([H])[H]


 47 51  0  0  0  0  0  0  0  0999 V2000
  -87.1081   32.3413   -2.1518 C   0  0  0  0  0  0  0  0  0  0  0  0
  -87.3819   31.1804   -1.4736 C   0  0  0  0  0  0  0  0  0  0  0  0
  -87.9814   30.1053   -2.0823 C   0  0  0  0  0  0  0  0  0  0  0  0
  -88.2886   30.2663   -3.4132 C   0  0  0  0  0  0  0  0  0  0  0  0
  -88.0273   31.4269   -4.1326 C   0  0  0  0  0  0  0  0  0  0  0  0
  -87.4300   32.4791   -3.5013 C   0  0  0  0  0  0  0  0  0  0  0  0
  -88.3192   28.8864   -1.4442 N   0  0  0  0  0  0  0  0  0  0  0  0
  -89.1425   27.9331   -2.1299 C   0  0  0  0  0  0  0  0  0  0  0  0
  -90.1728   27.2773   -1.2558 C   0  0  0  0  0  0  0  0  0  0  0  0
  -89.5426   26.8477    0.0540 C   0  0  0  0  0  0  0  0  0  0  0  0
  -88.9041   27.9723    0.7819 C   0  0  0  0  0  0  0  0  0  0  0  0
  -87.8496   28.6241   -0.1222 C   0  0  0  0  0  0  0  0  0  0  0  0
  -90.4519   26.0416    0.7768 N   0  0  0  0  0  0  0  0  0  0  0  0
  -91.5236   25.4415    0.0702 C   0  0  0  0  0  0  0  0  0  0  0  0
  -91.2957   23.9323   -0.0852 C   0  0  0  0  0  0  0  0  0  0  0  0
  -91.3277   23.3384    1.2075 N   0  0  0  0  0  0  0  0  0  0  0  0
  -91.0464   24.2983    2.2860 C   0  0  0  0  0  0  0  0  0  0  0  0
  -89.9039   25.1754    1.7700 C   0  0  0  0  0  0  0  0  0  0  0  0
  -90.4321   22.2271    1.3764 C   0  0  0  0  0  0  0  0  0  0  0  0
  -89.7892   21.7179    0.1352 C   0  0  0  0  0  0  0  0  0  0  0  0
  -88.5214   21.2098    0.2870 O   0  0  0  0  0  0  0  0  0  0  0  0
  -88.6042   20.2229    0.3296 H   0  0  0  0  0  0  0  0  0  0  0  0
  -85.7390   33.1637   -0.3189 C   0  0  0  0  0  0  0  0  0  0  0  0
  -86.4982   33.4031   -1.4849 O   0  0  0  0  0  0  0  0  0  0  0  0
  -87.1166   33.6971   -4.1487 N   0  0  0  0  0  0  0  0  0  0  0  0
  -86.0821   33.7612   -4.5236 H   0  0  0  0  0  0  0  0  0  0  0  0
  -87.8650   34.8333   -4.4096 C   0  0  0  0  0  0  0  0  0  0  0  0
  -87.6038   35.9251   -3.5942 N   0  0  0  0  0  0  0  0  0  0  0  0
  -88.2504   37.0799   -3.7180 C   0  0  0  0  0  0  0  0  0  0  0  0
  -89.2197   37.2459   -4.6737 C   0  0  0  0  0  0  0  0  0  0  0  0
  -90.0284   38.7915   -4.7828 Cl  0  0  0  0  0  0  0  0  0  0  0  0
  -89.5132   36.1676   -5.5196 C   0  0  0  0  0  0  0  0  0  0  0  0
  -88.8060   35.0481   -5.3136 N   0  0  0  0  0  0  0  0  0  0  0  0
  -90.5552   36.3809   -6.4362 N   0  0  0  0  0  0  0  0  0  0  0  0
  -91.2387   37.1617   -6.1503 H   0  0  0  0  0  0  0  0  0  0  0  0
  -90.8596   35.7597   -7.6513 C   0  0  0  0  0  0  0  0  0  0  0  0
  -91.4216   34.4923   -7.7455 C   0  0  0  0  0  0  0  0  0  0  0  0
  -91.6501   33.9372   -8.9863 C   0  0  0  0  0  0  0  0  0  0  0  0
  -91.3438   34.5854  -10.1528 C   0  0  0  0  0  0  0  0  0  0  0  0
  -90.7765   35.8628  -10.0221 C   0  0  0  0  0  0  0  0  0  0  0  0
  -90.5271   36.4642   -8.8221 C   0  0  0  0  0  0  0  0  0  0  0  0
  -89.8375   38.0381   -8.8086 S   0  0  0  0  0  0  0  0  0  0  0  0
  -90.8620   38.9907   -8.2489 O   0  0  0  0  0  0  0  0  0  0  0  0
  -88.5385   38.1927   -8.1113 O   0  0  0  0  0  0  0  0  0  0  0  0
  -89.5333   38.5726  -10.4983 C   0  0  0  0  0  0  0  0  0  0  0  0
  -90.4290   39.8125  -10.6818 C   0  0  0  0  0  0  0  0  0  0  0  0
  -88.1359   39.0420  -10.7187 C   0  0  0  0  0  0  0  0  0  0  0  0
 23 24  1  0  0  0
 24  1  1  0  0  0
  1  2  2  0  0  0
  2  3  1  0  0  0
  3  4  2  0  0  0
  4  5  1  0  0  0
  5  6  2  0  0  0
  6 25  1  0  0  0
 25 27  1  0  0  0
 27 28  2  0  0  0
 28 29  1  0  0  0
 29 30  2  0  0  0
 30 31  1  0  0  0
 30 32  1  0  0  0
 32 34  1  0  0  0
 34 36  1  0  0  0
 36 37  2  0  0  0
 37 38  1  0  0  0
 38 39  2  0  0  0
 39 40  1  0  0  0
 40 41  2  0  0  0
 41 42  1  0  0  0
 42 43  2  0  0  0
 42 44  2  0  0  0
 42 45  1  0  0  0
 45 46  1  0  0  0
 45 47  1  0  0  0
 32 33  2  0  0  0
  3  7  1  0  0  0
  7  8  1  0  0  0
  8  9  1  0  0  0
  9 10  1  0  0  0
 10 11  1  0  0  0
 11 12  1  0  0  0
 10 13  1  0  0  0
 13 14  1  0  0  0
 14 15  1  0  0  0
 15 16  1  0  0  0
 16 19  1  0  0  0
 19 20  1  0  0  0
 20 21  1  0  0  0
 16 17  1  0  0  0
 17 18  1  0  0  0
  6  1  1  0  0  0
 33 27  1  0  0  0
 12  7  1  0  0  0
 18 13  1  0  0  0
 41 36  1  0  0  0
 25 26  1  0  0  0
 34 35  1  0  0  0
 21 22  1  0  0  0
M  END
> <minimizedAffinity>
-7.95577

> <CNNscore>
0.0309895147

> <CNNaffinity>
6.2636771202

> <CNN_VS>
0.1941083074

> <CNNaffinity_variance>
0.2239966094

$$$$
[H]OC([H])([H])C([H])([H])N1C([H])([H])C([H])([H])N(C2([H])C([H])([H])C([H])([H])N(c3c([H])c([H])c(N([H])c4nc([H])c(Cl)c(N([H])c5c([H])c([H])c([H])c([H])c5S(=O)(=O)C([H])(C([H])([H])[H])C([H])([H])[H])n4)c(OC([H])([H])[H])c3[H])C([H])([H])C2([H])[H])C([H])([H])C1([H])[H]


 47 51  0  0  0  0  0  0  0  0999 V2000
  -87.4734   32.3106   -3.4043 C   0  0  0  0  0  0  0  0  0  0  0  0
  -87.8130   31.2284   -2.6323 C   0  0  0  0  0  0  0  0  0  0  0  0
  -87.6163   31.2126   -1.2734 C   0  0  0  0  0  0  0  0  0  0  0  0
  -87.0586   32.3495   -0.7366 C   0  0  0  0  0  0  0  0  0  0  0  0
  -86.7012   33.4643   -1.4866 C   0  0  0  0  0  0  0  0  0  0  0  0
  -86.9091   33.4515   -2.8353 C   0  0  0  0  0  0  0  0  0  0  0  0
  -87.9156   30.1260   -0.4152 N   0  0  0  0  0  0  0  0  0  0  0  0
  -86.8523   29.2982    0.0758 C   0  0  0  0  0  0  0  0  0  0  0  0
  -87.1793   27.8324    0.0928 C   0  0  0  0  0  0  0  0  0  0  0  0
  -88.5626   27.6174    0.6738 C   0  0  0  0  0  0  0  0  0  0  0  0
  -89.6168   28.3619   -0.0585 C   0  0  0  0  0  0  0  0  0  0  0  0
  -89.2710   29.8568   -0.0582 C   0  0  0  0  0  0  0  0  0  0  0  0
  -88.7770   26.2368    0.8913 N   0  0  0  0  0  0  0  0  0  0  0  0
  -89.2749   25.8266    2.1529 C   0  0  0  0  0  0  0  0  0  0  0  0
  -90.7406   25.3870    2.0429 C   0  0  0  0  0  0  0  0  0  0  0  0
  -90.7998   24.2230    1.2267 N   0  0  0  0  0  0  0  0  0  0  0  0
  -89.6326   24.0836    0.3423 C   0  0  0  0  0  0  0  0  0  0  0  0
  -89.3442   25.4906   -0.1850 C   0  0  0  0  0  0  0  0  0  0  0  0
  -91.9755   24.1287    0.4053 C   0  0  0  0  0  0  0  0  0  0  0  0
  -92.7791   22.8870    0.5635 C   0  0  0  0  0  0  0  0  0  0  0  0
  -93.9583   23.0253    1.2555 O   0  0  0  0  0  0  0  0  0  0  0  0
  -94.6857   23.0915    0.5852 H   0  0  0  0  0  0  0  0  0  0  0  0
  -88.9403   31.8429   -5.2857 C   0  0  0  0  0  0  0  0  0  0  0  0
  -87.6943   32.2736   -4.7805 O   0  0  0  0  0  0  0  0  0  0  0  0
  -86.5866   34.5384   -3.6812 N   0  0  0  0  0  0  0  0  0  0  0  0
  -85.5067   34.6805   -3.8495 H   0  0  0  0  0  0  0  0  0  0  0  0
  -87.3714   35.4645   -4.3488 C   0  0  0  0  0  0  0  0  0  0  0  0
  -86.7702   36.6886   -4.6042 N   0  0  0  0  0  0  0  0  0  0  0  0
  -87.4023   37.6789   -5.2261 C   0  0  0  0  0  0  0  0  0  0  0  0
  -88.6979   37.5313   -5.6505 C   0  0  0  0  0  0  0  0  0  0  0  0
  -89.4678   38.8730   -6.4641 Cl  0  0  0  0  0  0  0  0  0  0  0  0
  -89.3416   36.3091   -5.4136 C   0  0  0  0  0  0  0  0  0  0  0  0
  -88.6184   35.3757   -4.7799 N   0  0  0  0  0  0  0  0  0  0  0  0
  -90.6845   36.2416   -5.8180 N   0  0  0  0  0  0  0  0  0  0  0  0
  -91.3684   36.7444   -5.1561 H   0  0  0  0  0  0  0  0  0  0  0  0
  -91.2874   35.6387   -6.9262 C   0  0  0  0  0  0  0  0  0  0  0  0
  -90.6006   34.8427   -7.8349 C   0  0  0  0  0  0  0  0  0  0  0  0
  -91.2647   34.3216   -8.9245 C   0  0  0  0  0  0  0  0  0  0  0  0
  -92.5931   34.5552   -9.1605 C   0  0  0  0  0  0  0  0  0  0  0  0
  -93.2565   35.3639   -8.2243 C   0  0  0  0  0  0  0  0  0  0  0  0
  -92.6531   35.9074   -7.1269 C   0  0  0  0  0  0  0  0  0  0  0  0
  -93.5891   36.8715   -6.0557 S   0  0  0  0  0  0  0  0  0  0  0  0
  -92.7799   38.0915   -5.6995 O   0  0  0  0  0  0  0  0  0  0  0  0
  -94.9457   37.2548   -6.5139 O   0  0  0  0  0  0  0  0  0  0  0  0
  -93.8452   35.9786   -4.5161 C   0  0  0  0  0  0  0  0  0  0  0  0
  -95.2849   36.3311   -4.0963 C   0  0  0  0  0  0  0  0  0  0  0  0
  -93.8212   34.4983   -4.6896 C   0  0  0  0  0  0  0  0  0  0  0  0
 23 24  1  0  0  0
 24  1  1  0  0  0
  1  2  2  0  0  0
  2  3  1  0  0  0
  3  4  2  0  0  0
  4  5  1  0  0  0
  5  6  2  0  0  0
  6 25  1  0  0  0
 25 27  1  0  0  0
 27 28  2  0  0  0
 28 29  1  0  0  0
 29 30  2  0  0  0
 30 31  1  0  0  0
 30 32  1  0  0  0
 32 34  1  0  0  0
 34 36  1  0  0  0
 36 37  2  0  0  0
 37 38  1  0  0  0
 38 39  2  0  0  0
 39 40  1  0  0  0
 40 41  2  0  0  0
 41 42  1  0  0  0
 42 43  2  0  0  0
 42 44  2  0  0  0
 42 45  1  0  0  0
 45 46  1  0  0  0
 45 47  1  0  0  0
 32 33  2  0  0  0
  3  7  1  0  0  0
  7  8  1  0  0  0
  8  9  1  0  0  0
  9 10  1  0  0  0
 10 11  1  0  0  0
 11 12  1  0  0  0
 10 13  1  0  0  0
 13 14  1  0  0  0
 14 15  1  0  0  0
 15 16  1  0  0  0
 16 19  1  0  0  0
 19 20  1  0  0  0
 20 21  1  0  0  0
 16 17  1  0  0  0
 17 18  1  0  0  0
  6  1  1  0  0  0
 33 27  1  0  0  0
 12  7  1  0  0  0
 18 13  1  0  0  0
 41 36  1  0  0  0
 25 26  1  0  0  0
 34 35  1  0  0  0
 21 22  1  0  0  0
M  END
> <minimizedAffinity>
-7.20571

> <CNNscore>
0.0303133391

> <CNNaffinity>
6.3933439255

> <CNN_VS>
0.1938036084

> <CNNaffinity_variance>
0.2089539021

$$$$
[H]c1nc(N([H])c2c([H])c([H])c(N3C([H])([H])C([H])([H])C([H])(N(C([H])([H])[H])C([H])([H])[H])C([H])([H])C3([H])[H])c([H])c2OC([H])([H])[H])nc(N([H])c2c([H])c([H])c([H])c([H])c2S(=O)(=O)C([H])(C([H])([H])[H])C([H])([H])[H])c1Cl


 40 43  0  0  0  0  0  0  0  0999 V2000
  -85.5209   33.0862   -1.9605 C   0  0  0  0  0  0  0  0  0  0  0  0
  -84.3057   33.4214   -1.5407 N   0  0  0  0  0  0  0  0  0  0  0  0
  -83.7797   32.9814   -0.3908 C   0  0  0  0  0  0  0  0  0  0  0  0
  -84.4885   32.1438    0.4267 C   0  0  0  0  0  0  0  0  0  0  0  0
  -83.8473   31.5314    1.9343 Cl  0  0  0  0  0  0  0  0  0  0  0  0
  -85.7886   31.7530    0.0314 C   0  0  0  0  0  0  0  0  0  0  0  0
  -86.1938   32.2500   -1.1162 N   0  0  0  0  0  0  0  0  0  0  0  0
  -86.1579   33.5030   -3.1606 N   0  0  0  0  0  0  0  0  0  0  0  0
  -85.6114   34.2065   -3.7758 H   0  0  0  0  0  0  0  0  0  0  0  0
  -88.4921   33.9957   -3.4315 C   0  0  0  0  0  0  0  0  0  0  0  0
  -89.7128   33.6299   -3.9072 C   0  0  0  0  0  0  0  0  0  0  0  0
  -89.9418   32.4629   -4.5868 C   0  0  0  0  0  0  0  0  0  0  0  0
  -88.8701   31.6320   -4.7883 C   0  0  0  0  0  0  0  0  0  0  0  0
  -87.5992   31.9507   -4.3263 C   0  0  0  0  0  0  0  0  0  0  0  0
  -87.3958   33.1239   -3.6492 C   0  0  0  0  0  0  0  0  0  0  0  0
  -91.2338   32.0803   -5.0894 N   0  0  0  0  0  0  0  0  0  0  0  0
  -91.6370   30.7234   -4.8123 C   0  0  0  0  0  0  0  0  0  0  0  0
  -93.0378   30.3815   -5.1671 C   0  0  0  0  0  0  0  0  0  0  0  0
  -93.9011   31.5869   -5.3774 C   0  0  0  0  0  0  0  0  0  0  0  0
  -93.2545   32.4576   -6.4349 C   0  0  0  0  0  0  0  0  0  0  0  0
  -92.0109   33.0356   -5.8088 C   0  0  0  0  0  0  0  0  0  0  0  0
  -95.2485   31.2021   -5.7207 N   0  0  0  0  0  0  0  0  0  0  0  0
  -95.4055   30.9103   -7.1140 C   0  0  0  0  0  0  0  0  0  0  0  0
  -95.7726   30.1653   -4.8627 C   0  0  0  0  0  0  0  0  0  0  0  0
  -88.3525   36.4013   -3.4162 C   0  0  0  0  0  0  0  0  0  0  0  0
  -88.2739   35.1756   -2.7475 O   0  0  0  0  0  0  0  0  0  0  0  0
  -86.5486   30.9220    0.8835 N   0  0  0  0  0  0  0  0  0  0  0  0
  -87.1754   31.4264    1.5435 H   0  0  0  0  0  0  0  0  0  0  0  0
  -86.5022   29.5316    0.9295 C   0  0  0  0  0  0  0  0  0  0  0  0
  -85.4514   28.8149    1.5026 C   0  0  0  0  0  0  0  0  0  0  0  0
  -85.4927   27.4355    1.6404 C   0  0  0  0  0  0  0  0  0  0  0  0
  -86.5771   26.7204    1.2156 C   0  0  0  0  0  0  0  0  0  0  0  0
  -87.6074   27.4228    0.6527 C   0  0  0  0  0  0  0  0  0  0  0  0
  -87.6152   28.8144    0.4881 C   0  0  0  0  0  0  0  0  0  0  0  0
  -88.9382   29.5091   -0.3467 S   0  0  0  0  0  0  0  0  0  0  0  0
  -90.2307   28.8819    0.2256 O   0  0  0  0  0  0  0  0  0  0  0  0
  -89.1480   30.9818   -0.0925 O   0  0  0  0  0  0  0  0  0  0  0  0
  -89.0179   29.1771   -2.0766 C   0  0  0  0  0  0  0  0  0  0  0  0
  -87.6405   28.7726   -2.6112 C   0  0  0  0  0  0  0  0  0  0  0  0
  -89.9667   28.1303   -2.4905 C   0  0  0  0  0  0  0  0  0  0  0  0
 25 26  1  0  0  0
 26 10  1  0  0  0
 10 11  2  0  0  0
 11 12  1  0  0  0
 12 13  2  0  0  0
 13 14  1  0  0  0
 14 15  2  0  0  0
 15  8  1  0  0  0
  8  1  1  0  0  0
  1  2  2  0  0  0
  2  3  1  0  0  0
  3  4  2  0  0  0
  4  5  1  0  0  0
  4  6  1  0  0  0
  6 27  1  0  0  0
 27 29  1  0  0  0
 29 30  2  0  0  0
 30 31  1  0  0  0
 31 32  2  0  0  0
 32 33  1  0  0  0
 33 34  2  0  0  0
 34 35  1  0  0  0
 35 36  2  0  0  0
 35 37  2  0  0  0
 35 38  1  0  0  0
 38 39  1  0  0  0
 38 40  1  0  0  0
  6  7  2  0  0  0
 12 16  1  0  0  0
 16 17  1  0  0  0
 17 18  1  0  0  0
 18 19  1  0  0  0
 19 20  1  0  0  0
 20 21  1  0  0  0
 19 22  1  0  0  0
 22 23  1  0  0  0
 22 24  1  0  0  0
 15 10  1  0  0  0
  7  1  1  0  0  0
 21 16  1  0  0  0
 34 29  1  0  0  0
  8  9  1  0  0  0
 27 28  1  0  0  0
M  END
> <minimizedAffinity>
-7.98920

> <CNNscore>
0.5985919833

> <CNNaffinity>
7.5793256760

> <CNN_VS>
4.5369234085

> <CNNaffinity_variance>
0.1818461418

$$$$
[H]c1nc(N([H])c2c([H])c([H])c(N3C([H])([H])C([H])([H])C([H])(N(C([H])([H])[H])C([H])([H])[H])C([H])([H])C3([H])[H])c([H])c2OC([H])([H])[H])nc(N([H])c2c([H])c([H])c([H])c([H])c2S(=O)(=O)C([H])(C([H])([H])[H])C([H])([H])[H])c1Cl


 40 43  0  0  0  0  0  0  0  0999 V2000
  -85.6317   33.2078   -1.8558 C   0  0  0  0  0  0  0  0  0  0  0  0
  -84.5144   33.3677   -1.1547 N   0  0  0  0  0  0  0  0  0  0  0  0
  -84.2560   32.6988   -0.0240 C   0  0  0  0  0  0  0  0  0  0  0  0
  -85.1549   31.7956    0.4748 C   0  0  0  0  0  0  0  0  0  0  0  0
  -84.8651   30.8877    1.9413 Cl  0  0  0  0  0  0  0  0  0  0  0  0
  -86.3626   31.5839   -0.2293 C   0  0  0  0  0  0  0  0  0  0  0  0
  -86.5008   32.2986   -1.3240 N   0  0  0  0  0  0  0  0  0  0  0  0
  -85.9892   33.8713   -3.0605 N   0  0  0  0  0  0  0  0  0  0  0  0
  -85.1787   34.1073   -3.7385 H   0  0  0  0  0  0  0  0  0  0  0  0
  -87.9817   33.3602   -4.2989 C   0  0  0  0  0  0  0  0  0  0  0  0
  -89.2199   33.7338   -4.7203 C   0  0  0  0  0  0  0  0  0  0  0  0
  -89.7989   34.9329   -4.3996 C   0  0  0  0  0  0  0  0  0  0  0  0
  -89.0756   35.7892   -3.6102 C   0  0  0  0  0  0  0  0  0  0  0  0
  -87.8061   35.4642   -3.1489 C   0  0  0  0  0  0  0  0  0  0  0  0
  -87.2486   34.2585   -3.4836 C   0  0  0  0  0  0  0  0  0  0  0  0
  -91.1090   35.3237   -4.8461 N   0  0  0  0  0  0  0  0  0  0  0  0
  -91.6452   34.5681   -5.9516 C   0  0  0  0  0  0  0  0  0  0  0  0
  -93.0631   34.8449   -6.2947 C   0  0  0  0  0  0  0  0  0  0  0  0
  -93.8034   35.5549   -5.2036 C   0  0  0  0  0  0  0  0  0  0  0  0
  -93.0523   36.8267   -4.8675 C   0  0  0  0  0  0  0  0  0  0  0  0
  -91.7749   36.4006   -4.1898 C   0  0  0  0  0  0  0  0  0  0  0  0
  -95.1725   35.8014   -5.5857 N   0  0  0  0  0  0  0  0  0  0  0  0
  -95.8523   36.6802   -4.6821 C   0  0  0  0  0  0  0  0  0  0  0  0
  -95.3075   36.1963   -6.9683 C   0  0  0  0  0  0  0  0  0  0  0  0
  -88.0704   30.9523   -4.3312 C   0  0  0  0  0  0  0  0  0  0  0  0
  -87.4086   32.1477   -4.6292 O   0  0  0  0  0  0  0  0  0  0  0  0
  -87.3183   30.6856    0.2940 N   0  0  0  0  0  0  0  0  0  0  0  0
  -87.0851   30.2923    1.2287 H   0  0  0  0  0  0  0  0  0  0  0  0
  -88.4904   30.2755   -0.3350 C   0  0  0  0  0  0  0  0  0  0  0  0
  -89.4542   31.1602   -0.8195 C   0  0  0  0  0  0  0  0  0  0  0  0
  -90.5509   30.7242   -1.5479 C   0  0  0  0  0  0  0  0  0  0  0  0
  -90.7287   29.3970   -1.8212 C   0  0  0  0  0  0  0  0  0  0  0  0
  -89.7842   28.5290   -1.3453 C   0  0  0  0  0  0  0  0  0  0  0  0
  -88.6603   28.9165   -0.6035 C   0  0  0  0  0  0  0  0  0  0  0  0
  -87.6493   27.6804    0.0127 S   0  0  0  0  0  0  0  0  0  0  0  0
  -87.4381   26.6456   -1.1170 O   0  0  0  0  0  0  0  0  0  0  0  0
  -86.2384   28.1120    0.3301 O   0  0  0  0  0  0  0  0  0  0  0  0
  -88.3092   26.7407    1.3509 C   0  0  0  0  0  0  0  0  0  0  0  0
  -89.0599   27.6501    2.3287 C   0  0  0  0  0  0  0  0  0  0  0  0
  -89.2271   25.6498    0.9836 C   0  0  0  0  0  0  0  0  0  0  0  0
 25 26  1  0  0  0
 26 10  1  0  0  0
 10 11  2  0  0  0
 11 12  1  0  0  0
 12 13  2  0  0  0
 13 14  1  0  0  0
 14 15  2  0  0  0
 15  8  1  0  0  0
  8  1  1  0  0  0
  1  2  2  0  0  0
  2  3  1  0  0  0
  3  4  2  0  0  0
  4  5  1  0  0  0
  4  6  1  0  0  0
  6 27  1  0  0  0
 27 29  1  0  0  0
 29 30  2  0  0  0
 30 31  1  0  0  0
 31 32  2  0  0  0
 32 33  1  0  0  0
 33 34  2  0  0  0
 34 35  1  0  0  0
 35 36  2  0  0  0
 35 37  2  0  0  0
 35 38  1  0  0  0
 38 39  1  0  0  0
 38 40  1  0  0  0
  6  7  2  0  0  0
 12 16  1  0  0  0
 16 17  1  0  0  0
 17 18  1  0  0  0
 18 19  1  0  0  0
 19 20  1  0  0  0
 20 21  1  0  0  0
 19 22  1  0  0  0
 22 23  1  0  0  0
 22 24  1  0  0  0
 15 10  1  0  0  0
  7  1  1  0  0  0
 21 16  1  0  0  0
 34 29  1  0  0  0
  8  9  1  0  0  0
 27 28  1  0  0  0
M  END
> <minimizedAffinity>
-7.35451

> <CNNscore>
0.5802288651

> <CNNaffinity>
7.5118179321

> <CNN_VS>
4.3585734367

> <CNNaffinity_variance>
0.0772893280

$$$$
[H]c1nc(N([H])c2c([H])c([H])c(N3C([H])([H])C([H])([H])C([H])(N(C([H])([H])[H])C([H])([H])[H])C([H])([H])C3([H])[H])c([H])c2OC([H])([H])[H])nc(N([H])c2c([H])c([H])c([H])c([H])c2S(=O)(=O)C([H])(C([H])([H])[H])C([H])([H])[H])c1Cl


 40 43  0  0  0  0  0  0  0  0999 V2000
  -85.7511   33.0894   -2.0503 C   0  0  0  0  0  0  0  0  0  0  0  0
  -84.6374   33.4843   -1.4427 N   0  0  0  0  0  0  0  0  0  0  0  0
  -84.2629   33.0401   -0.2365 C   0  0  0  0  0  0  0  0  0  0  0  0
  -85.0307   32.1348    0.4442 C   0  0  0  0  0  0  0  0  0  0  0  0
  -84.5852   31.5140    2.0175 Cl  0  0  0  0  0  0  0  0  0  0  0  0
  -86.2281   31.6784   -0.1533 C   0  0  0  0  0  0  0  0  0  0  0  0
  -86.4875   32.1868   -1.3376 N   0  0  0  0  0  0  0  0  0  0  0  0
  -86.2259   33.5052   -3.3235 N   0  0  0  0  0  0  0  0  0  0  0  0
  -85.6931   33.1215   -4.1843 H   0  0  0  0  0  0  0  0  0  0  0  0
  -88.3379   33.8368   -4.4164 C   0  0  0  0  0  0  0  0  0  0  0  0
  -89.3860   34.6551   -4.7030 C   0  0  0  0  0  0  0  0  0  0  0  0
  -89.4842   35.9452   -4.2533 C   0  0  0  0  0  0  0  0  0  0  0  0
  -88.4608   36.4189   -3.4736 C   0  0  0  0  0  0  0  0  0  0  0  0
  -87.3640   35.6312   -3.1469 C   0  0  0  0  0  0  0  0  0  0  0  0
  -87.2890   34.3438   -3.6090 C   0  0  0  0  0  0  0  0  0  0  0  0
  -90.5947   36.8069   -4.5574 N   0  0  0  0  0  0  0  0  0  0  0  0
  -90.3605   37.7914   -5.5853 C   0  0  0  0  0  0  0  0  0  0  0  0
  -91.5528   38.5571   -6.0288 C   0  0  0  0  0  0  0  0  0  0  0  0
  -92.8452   37.9145   -5.6296 C   0  0  0  0  0  0  0  0  0  0  0  0
  -92.8356   37.7176   -4.1277 C   0  0  0  0  0  0  0  0  0  0  0  0
  -91.8194   36.6405   -3.8457 C   0  0  0  0  0  0  0  0  0  0  0  0
  -93.9705   38.6960   -6.0814 N   0  0  0  0  0  0  0  0  0  0  0  0
  -94.4357   39.6233   -5.0941 C   0  0  0  0  0  0  0  0  0  0  0  0
  -93.7489   39.3065   -7.3714 C   0  0  0  0  0  0  0  0  0  0  0  0
  -89.4003   31.7475   -4.9759 C   0  0  0  0  0  0  0  0  0  0  0  0
  -88.2505   32.5372   -4.8759 O   0  0  0  0  0  0  0  0  0  0  0  0
  -87.0520   30.7755    0.5539 N   0  0  0  0  0  0  0  0  0  0  0  0
  -87.8267   31.2165    1.0905 H   0  0  0  0  0  0  0  0  0  0  0  0
  -86.8943   29.3937    0.6126 C   0  0  0  0  0  0  0  0  0  0  0  0
  -85.8815   28.7645    1.3369 C   0  0  0  0  0  0  0  0  0  0  0  0
  -85.8246   27.3856    1.4736 C   0  0  0  0  0  0  0  0  0  0  0  0
  -86.7701   26.5841    0.8978 C   0  0  0  0  0  0  0  0  0  0  0  0
  -87.7630   27.2008    0.1866 C   0  0  0  0  0  0  0  0  0  0  0  0
  -87.8654   28.5879    0.0162 C   0  0  0  0  0  0  0  0  0  0  0  0
  -89.1062   29.1741   -1.0067 S   0  0  0  0  0  0  0  0  0  0  0  0
  -89.9012   30.2364   -0.2123 O   0  0  0  0  0  0  0  0  0  0  0  0
  -88.6261   29.9534   -2.2066 O   0  0  0  0  0  0  0  0  0  0  0  0
  -90.3207   27.9943   -1.4989 C   0  0  0  0  0  0  0  0  0  0  0  0
  -91.4091   27.8637   -0.4289 C   0  0  0  0  0  0  0  0  0  0  0  0
  -91.0008   28.2619   -2.7769 C   0  0  0  0  0  0  0  0  0  0  0  0
 25 26  1  0  0  0
 26 10  1  0  0  0
 10 11  2  0  0  0
 11 12  1  0  0  0
 12 13  2  0  0  0
 13 14  1  0  0  0
 14 15  2  0  0  0
 15  8  1  0  0  0
  8  1  1  0  0  0
  1  2  2  0  0  0
  2  3  1  0  0  0
  3  4  2  0  0  0
  4  5  1  0  0  0
  4  6  1  0  0  0
  6 27  1  0  0  0
 27 29  1  0  0  0
 29 30  2  0  0  0
 30 31  1  0  0  0
 31 32  2  0  0  0
 32 33  1  0  0  0
 33 34  2  0  0  0
 34 35  1  0  0  0
 35 36  2  0  0  0
 35 37  2  0  0  0
 35 38  1  0  0  0
 38 39  1  0  0  0
 38 40  1  0  0  0
  6  7  2  0  0  0
 12 16  1  0  0  0
 16 17  1  0  0  0
 17 18  1  0  0  0
 18 19  1  0  0  0
 19 20  1  0  0  0
 20 21  1  0  0  0
 19 22  1  0  0  0
 22 23  1  0  0  0
 22 24  1  0  0  0
 15 10  1  0  0  0
  7  1  1  0  0  0
 21 16  1  0  0  0
 34 29  1  0  0  0
  8  9  1  0  0  0
 27 28  1  0  0  0
M  END
> <minimizedAffinity>
-6.94639

> <CNNscore>
0.5727508664

> <CNNaffinity>
7.3965024948

> <CNN_VS>
4.2363533974

> <CNNaffinity_variance>
0.0881835371

$$$$
[H]c1nc(N([H])c2c([H])c([H])c(N3C([H])([H])C([H])([H])C([H])(N(C([H])([H])[H])C([H])([H])[H])C([H])([H])C3([H])[H])c([H])c2OC([H])([H])[H])nc(N([H])c2c([H])c([H])c([H])c([H])c2S(=O)(=O)C([H])(C([H])([H])[H])C([H])([H])[H])c1Cl


 40 43  0  0  0  0  0  0  0  0999 V2000
  -85.8042   29.3596    0.7499 C   0  0  0  0  0  0  0  0  0  0  0  0
  -84.7637   30.1354    1.0340 N   0  0  0  0  0  0  0  0  0  0  0  0
  -84.7180   31.4397    0.7353 C   0  0  0  0  0  0  0  0  0  0  0  0
  -85.7691   32.0500    0.1067 C   0  0  0  0  0  0  0  0  0  0  0  0
  -85.7671   33.7514   -0.2986 Cl  0  0  0  0  0  0  0  0  0  0  0  0
  -86.9046   31.2737   -0.2209 C   0  0  0  0  0  0  0  0  0  0  0  0
  -86.8305   30.0071    0.1234 N   0  0  0  0  0  0  0  0  0  0  0  0
  -85.9398   27.9726    1.0278 N   0  0  0  0  0  0  0  0  0  0  0  0
  -85.0314   27.4426    1.2849 H   0  0  0  0  0  0  0  0  0  0  0  0
  -87.5843   26.7711   -0.2437 C   0  0  0  0  0  0  0  0  0  0  0  0
  -88.7162   26.0171   -0.2679 C   0  0  0  0  0  0  0  0  0  0  0  0
  -89.4071   25.6526    0.8572 C   0  0  0  0  0  0  0  0  0  0  0  0
  -88.9155   26.0807    2.0633 C   0  0  0  0  0  0  0  0  0  0  0  0
  -87.7642   26.8532    2.1523 C   0  0  0  0  0  0  0  0  0  0  0  0
  -87.0909   27.2047    1.0124 C   0  0  0  0  0  0  0  0  0  0  0  0
  -90.6029   24.8541    0.8275 N   0  0  0  0  0  0  0  0  0  0  0  0
  -91.6928   25.3871    0.0475 C   0  0  0  0  0  0  0  0  0  0  0  0
  -92.8573   24.4841   -0.1352 C   0  0  0  0  0  0  0  0  0  0  0  0
  -92.5448   23.0528    0.1754 C   0  0  0  0  0  0  0  0  0  0  0  0
  -91.9982   22.9797    1.5862 C   0  0  0  0  0  0  0  0  0  0  0  0
  -90.6361   23.6245    1.5493 C   0  0  0  0  0  0  0  0  0  0  0  0
  -93.7063   22.2186   -0.0155 N   0  0  0  0  0  0  0  0  0  0  0  0
  -93.4695   20.8488    0.3285 C   0  0  0  0  0  0  0  0  0  0  0  0
  -94.8944   22.7600    0.6019 C   0  0  0  0  0  0  0  0  0  0  0  0
  -87.4989   27.9600   -2.3380 C   0  0  0  0  0  0  0  0  0  0  0  0
  -86.8962   27.1321   -1.3857 O   0  0  0  0  0  0  0  0  0  0  0  0
  -87.9805   31.8794   -0.9062 N   0  0  0  0  0  0  0  0  0  0  0  0
  -88.6649   32.3743   -0.2985 H   0  0  0  0  0  0  0  0  0  0  0  0
  -88.2056   31.8399   -2.2793 C   0  0  0  0  0  0  0  0  0  0  0  0
  -87.2808   32.2853   -3.2242 C   0  0  0  0  0  0  0  0  0  0  0  0
  -87.4854   32.1206   -4.5859 C   0  0  0  0  0  0  0  0  0  0  0  0
  -88.6128   31.5082   -5.0569 C   0  0  0  0  0  0  0  0  0  0  0  0
  -89.5204   31.0722   -4.1306 C   0  0  0  0  0  0  0  0  0  0  0  0
  -89.3635   31.2154   -2.7454 C   0  0  0  0  0  0  0  0  0  0  0  0
  -90.6583   30.7178   -1.7427 S   0  0  0  0  0  0  0  0  0  0  0  0
  -90.5971   31.5637   -0.4495 O   0  0  0  0  0  0  0  0  0  0  0  0
  -92.0340   31.0341   -2.2766 O   0  0  0  0  0  0  0  0  0  0  0  0
  -90.5983   29.0483   -1.1784 C   0  0  0  0  0  0  0  0  0  0  0  0
  -91.0952   28.9505    0.2673 C   0  0  0  0  0  0  0  0  0  0  0  0
  -91.3675   28.0717   -1.9670 C   0  0  0  0  0  0  0  0  0  0  0  0
 25 26  1  0  0  0
 26 10  1  0  0  0
 10 11  2  0  0  0
 11 12  1  0  0  0
 12 13  2  0  0  0
 13 14  1  0  0  0
 14 15  2  0  0  0
 15  8  1  0  0  0
  8  1  1  0  0  0
  1  2  2  0  0  0
  2  3  1  0  0  0
  3  4  2  0  0  0
  4  5  1  0  0  0
  4  6  1  0  0  0
  6 27  1  0  0  0
 27 29  1  0  0  0
 29 30  2  0  0  0
 30 31  1  0  0  0
 31 32  2  0  0  0
 32 33  1  0  0  0
 33 34  2  0  0  0
 34 35  1  0  0  0
 35 36  2  0  0  0
 35 37  2  0  0  0
 35 38  1  0  0  0
 38 39  1  0  0  0
 38 40  1  0  0  0
  6  7  2  0  0  0
 12 16  1  0  0  0
 16 17  1  0  0  0
 17 18  1  0  0  0
 18 19  1  0  0  0
 19 20  1  0  0  0
 20 21  1  0  0  0
 19 22  1  0  0  0
 22 23  1  0  0  0
 22 24  1  0  0  0
 15 10  1  0  0  0
  7  1  1  0  0  0
 21 16  1  0  0  0
 34 29  1  0  0  0
  8  9  1  0  0  0
 27 28  1  0  0  0
M  END
> <minimizedAffinity>
-6.85069

> <CNNscore>
0.0701768771

> <CNNaffinity>
6.7406640053

> <CNN_VS>
0.4730387628

> <CNNaffinity_variance>
0.2012304813

$$$$
[H]c1nc(N([H])c2c([H])c([H])c(N3C([H])([H])C([H])([H])C([H])(N(C([H])([H])[H])C([H])([H])[H])C([H])([H])C3([H])[H])c([H])c2OC([H])([H])[H])nc(N([H])c2c([H])c([H])c([H])c([H])c2S(=O)(=O)C([H])(C([H])([H])[H])C([H])([H])[H])c1Cl


 40 43  0  0  0  0  0  0  0  0999 V2000
  -85.7809   28.7459    1.8864 C   0  0  0  0  0  0  0  0  0  0  0  0
  -84.5033   29.0077    2.1405 N   0  0  0  0  0  0  0  0  0  0  0  0
  -83.8292   30.0067    1.5573 C   0  0  0  0  0  0  0  0  0  0  0  0
  -84.4416   30.8259    0.6483 C   0  0  0  0  0  0  0  0  0  0  0  0
  -83.6125   32.1510   -0.1363 Cl  0  0  0  0  0  0  0  0  0  0  0  0
  -85.8016   30.5948    0.3379 C   0  0  0  0  0  0  0  0  0  0  0  0
  -86.3537   29.5858    0.9747 N   0  0  0  0  0  0  0  0  0  0  0  0
  -86.5729   27.7120    2.4549 N   0  0  0  0  0  0  0  0  0  0  0  0
  -86.4205   27.5133    3.5082 H   0  0  0  0  0  0  0  0  0  0  0  0
  -88.8138   26.8510    2.4105 C   0  0  0  0  0  0  0  0  0  0  0  0
  -89.7515   26.0729    1.8059 C   0  0  0  0  0  0  0  0  0  0  0  0
  -89.5152   25.3500    0.6667 C   0  0  0  0  0  0  0  0  0  0  0  0
  -88.2596   25.4279    0.1216 C   0  0  0  0  0  0  0  0  0  0  0  0
  -87.2601   26.2054    0.6931 C   0  0  0  0  0  0  0  0  0  0  0  0
  -87.5213   26.9193    1.8327 C   0  0  0  0  0  0  0  0  0  0  0  0
  -90.5098   24.5293    0.0297 N   0  0  0  0  0  0  0  0  0  0  0  0
  -91.4347   25.2224   -0.8332 C   0  0  0  0  0  0  0  0  0  0  0  0
  -92.3423   24.3599   -1.6314 C   0  0  0  0  0  0  0  0  0  0  0  0
  -91.8834   22.9364   -1.7071 C   0  0  0  0  0  0  0  0  0  0  0  0
  -91.7161   22.4139   -0.2952 C   0  0  0  0  0  0  0  0  0  0  0  0
  -90.5201   23.1260    0.2836 C   0  0  0  0  0  0  0  0  0  0  0  0
  -92.7976   22.1412   -2.4902 N   0  0  0  0  0  0  0  0  0  0  0  0
  -93.7303   21.4117   -1.6848 C   0  0  0  0  0  0  0  0  0  0  0  0
  -93.4304   22.8924   -3.5491 C   0  0  0  0  0  0  0  0  0  0  0  0
  -90.3749   27.7273    4.0236 C   0  0  0  0  0  0  0  0  0  0  0  0
  -89.0645   27.5756    3.5593 O   0  0  0  0  0  0  0  0  0  0  0  0
  -86.4365   31.4057   -0.6283 N   0  0  0  0  0  0  0  0  0  0  0  0
  -86.1810   32.4137   -0.5915 H   0  0  0  0  0  0  0  0  0  0  0  0
  -87.3683   30.9819   -1.5715 C   0  0  0  0  0  0  0  0  0  0  0  0
  -87.8919   29.6893   -1.6096 C   0  0  0  0  0  0  0  0  0  0  0  0
  -88.9071   29.3340   -2.4850 C   0  0  0  0  0  0  0  0  0  0  0  0
  -89.4381   30.2479   -3.3514 C   0  0  0  0  0  0  0  0  0  0  0  0
  -88.9242   31.5154   -3.3150 C   0  0  0  0  0  0  0  0  0  0  0  0
  -87.8985   31.9255   -2.4528 C   0  0  0  0  0  0  0  0  0  0  0  0
  -87.2989   33.5187   -2.6311 S   0  0  0  0  0  0  0  0  0  0  0  0
  -87.2870   34.1711   -1.2291 O   0  0  0  0  0  0  0  0  0  0  0  0
  -85.8513   33.6105   -3.0479 O   0  0  0  0  0  0  0  0  0  0  0  0
  -88.2804   34.6059   -3.6128 C   0  0  0  0  0  0  0  0  0  0  0  0
  -88.0243   36.0644   -3.2206 C   0  0  0  0  0  0  0  0  0  0  0  0
  -88.0903   34.5102   -5.0695 C   0  0  0  0  0  0  0  0  0  0  0  0
 25 26  1  0  0  0
 26 10  1  0  0  0
 10 11  2  0  0  0
 11 12  1  0  0  0
 12 13  2  0  0  0
 13 14  1  0  0  0
 14 15  2  0  0  0
 15  8  1  0  0  0
  8  1  1  0  0  0
  1  2  2  0  0  0
  2  3  1  0  0  0
  3  4  2  0  0  0
  4  5  1  0  0  0
  4  6  1  0  0  0
  6 27  1  0  0  0
 27 29  1  0  0  0
 29 30  2  0  0  0
 30 31  1  0  0  0
 31 32  2  0  0  0
 32 33  1  0  0  0
 33 34  2  0  0  0
 34 35  1  0  0  0
 35 36  2  0  0  0
 35 37  2  0  0  0
 35 38  1  0  0  0
 38 39  1  0  0  0
 38 40  1  0  0  0
  6  7  2  0  0  0
 12 16  1  0  0  0
 16 17  1  0  0  0
 17 18  1  0  0  0
 18 19  1  0  0  0
 19 20  1  0  0  0
 20 21  1  0  0  0
 19 22  1  0  0  0
 22 23  1  0  0  0
 22 24  1  0  0  0
 15 10  1  0  0  0
  7  1  1  0  0  0
 21 16  1  0  0  0
 34 29  1  0  0  0
  8  9  1  0  0  0
 27 28  1  0  0  0
M  END
> <minimizedAffinity>
-7.51389

> <CNNscore>
0.0632366389

> <CNNaffinity>
6.9375152588

> <CNN_VS>
0.4387051463

> <CNNaffinity_variance>
0.1002026647

$$$$
[H]c1nc(N([H])c2c([H])c([H])c(N3C([H])([H])C([H])([H])C([H])(N(C([H])([H])[H])C([H])([H])[H])C([H])([H])C3([H])[H])c([H])c2OC([H])([H])[H])nc(N([H])c2c([H])c([H])c([H])c([H])c2S(=O)(=O)C([H])(C([H])([H])[H])C([H])([H])[H])c1Cl


 40 43  0  0  0  0  0  0  0  0999 V2000
  -88.1366   29.3616   -2.7220 C   0  0  0  0  0  0  0  0  0  0  0  0
  -88.6611   30.3199   -3.4782 N   0  0  0  0  0  0  0  0  0  0  0  0
  -88.5554   31.6229   -3.1891 C   0  0  0  0  0  0  0  0  0  0  0  0
  -87.8843   32.0386   -2.0715 C   0  0  0  0  0  0  0  0  0  0  0  0
  -87.7073   33.7270   -1.6507 Cl  0  0  0  0  0  0  0  0  0  0  0  0
  -87.3049   31.0627   -1.2282 C   0  0  0  0  0  0  0  0  0  0  0  0
  -87.4762   29.8188   -1.6176 N   0  0  0  0  0  0  0  0  0  0  0  0
  -88.1987   27.9603   -2.9496 N   0  0  0  0  0  0  0  0  0  0  0  0
  -87.8107   27.6093   -3.8975 H   0  0  0  0  0  0  0  0  0  0  0  0
  -89.9268   26.3679   -2.4567 C   0  0  0  0  0  0  0  0  0  0  0  0
  -90.4221   25.4021   -1.6369 C   0  0  0  0  0  0  0  0  0  0  0  0
  -89.7947   24.9851   -0.4930 C   0  0  0  0  0  0  0  0  0  0  0  0
  -88.6042   25.5857   -0.1742 C   0  0  0  0  0  0  0  0  0  0  0  0
  -88.0478   26.5779   -0.9717 C   0  0  0  0  0  0  0  0  0  0  0  0
  -88.6947   26.9776   -2.1110 C   0  0  0  0  0  0  0  0  0  0  0  0
  -90.3212   23.9626    0.3706 N   0  0  0  0  0  0  0  0  0  0  0  0
  -91.0003   22.8743   -0.2889 C   0  0  0  0  0  0  0  0  0  0  0  0
  -91.3822   21.7317    0.5792 C   0  0  0  0  0  0  0  0  0  0  0  0
  -90.6573   21.7220    1.8895 C   0  0  0  0  0  0  0  0  0  0  0  0
  -90.8982   23.0499    2.5773 C   0  0  0  0  0  0  0  0  0  0  0  0
  -90.1457   24.0850    1.7806 C   0  0  0  0  0  0  0  0  0  0  0  0
  -91.0639   20.5962    2.6949 N   0  0  0  0  0  0  0  0  0  0  0  0
  -91.7419   19.5871    1.9381 C   0  0  0  0  0  0  0  0  0  0  0  0
  -89.9916   20.0700    3.5069 C   0  0  0  0  0  0  0  0  0  0  0  0
  -91.8202   27.3999   -3.5321 C   0  0  0  0  0  0  0  0  0  0  0  0
  -90.5691   26.7797   -3.6080 O   0  0  0  0  0  0  0  0  0  0  0  0
  -86.6443   31.4734   -0.0496 N   0  0  0  0  0  0  0  0  0  0  0  0
  -87.2729   31.7454    0.7337 H   0  0  0  0  0  0  0  0  0  0  0  0
  -85.2671   31.5696    0.1286 C   0  0  0  0  0  0  0  0  0  0  0  0
  -84.4697   32.5079   -0.5273 C   0  0  0  0  0  0  0  0  0  0  0  0
  -83.1218   32.6569   -0.2369 C   0  0  0  0  0  0  0  0  0  0  0  0
  -82.5193   31.8818    0.7139 C   0  0  0  0  0  0  0  0  0  0  0  0
  -83.3008   30.9609    1.3567 C   0  0  0  0  0  0  0  0  0  0  0  0
  -84.6649   30.7686    1.1000 C   0  0  0  0  0  0  0  0  0  0  0  0
  -85.4547   29.4876    1.9154 S   0  0  0  0  0  0  0  0  0  0  0  0
  -85.4069   29.7999    3.4293 O   0  0  0  0  0  0  0  0  0  0  0  0
  -86.9363   29.3817    1.6490 O   0  0  0  0  0  0  0  0  0  0  0  0
  -84.6999   27.9006    1.7708 C   0  0  0  0  0  0  0  0  0  0  0  0
  -83.5313   27.7687    2.7524 C   0  0  0  0  0  0  0  0  0  0  0  0
  -85.5823   26.7429    1.9911 C   0  0  0  0  0  0  0  0  0  0  0  0
 25 26  1  0  0  0
 26 10  1  0  0  0
 10 11  2  0  0  0
 11 12  1  0  0  0
 12 13  2  0  0  0
 13 14  1  0  0  0
 14 15  2  0  0  0
 15  8  1  0  0  0
  8  1  1  0  0  0
  1  2  2  0  0  0
  2  3  1  0  0  0
  3  4  2  0  0  0
  4  5  1  0  0  0
  4  6  1  0  0  0
  6 27  1  0  0  0
 27 29  1  0  0  0
 29 30  2  0  0  0
 30 31  1  0  0  0
 31 32  2  0  0  0
 32 33  1  0  0  0
 33 34  2  0  0  0
 34 35  1  0  0  0
 35 36  2  0  0  0
 35 37  2  0  0  0
 35 38  1  0  0  0
 38 39  1  0  0  0
 38 40  1  0  0  0
  6  7  2  0  0  0
 12 16  1  0  0  0
 16 17  1  0  0  0
 17 18  1  0  0  0
 18 19  1  0  0  0
 19 20  1  0  0  0
 20 21  1  0  0  0
 19 22  1  0  0  0
 22 23  1  0  0  0
 22 24  1  0  0  0
 15 10  1  0  0  0
  7  1  1  0  0  0
 21 16  1  0  0  0
 34 29  1  0  0  0
  8  9  1  0  0  0
 27 28  1  0  0  0
M  END
> <minimizedAffinity>
-8.96831

> <CNNscore>
0.0532580130

> <CNNaffinity>
6.6731667519

> <CNN_VS>
0.3553996086

> <CNNaffinity_variance>
0.6567218900

$$$$
[H]c1nc(N([H])c2c([H])c([H])c(N3C([H])([H])C([H])([H])C([H])(N(C([H])([H])[H])C([H])([H])[H])C([H])([H])C3([H])[H])c([H])c2OC([H])([H])[H])nc(N([H])c2c([H])c([H])c([H])c([H])c2S(=O)(=O)C([H])(C([H])([H])[H])C([H])([H])[H])c1Cl


 40 43  0  0  0  0  0  0  0  0999 V2000
  -89.1747   31.0651   -3.3052 C   0  0  0  0  0  0  0  0  0  0  0  0
  -89.0737   32.1354   -4.0860 N   0  0  0  0  0  0  0  0  0  0  0  0
  -88.3254   33.2015   -3.7759 C   0  0  0  0  0  0  0  0  0  0  0  0
  -87.6112   33.2387   -2.6094 C   0  0  0  0  0  0  0  0  0  0  0  0
  -86.6106   34.6006   -2.1588 Cl  0  0  0  0  0  0  0  0  0  0  0  0
  -87.6804   32.1272   -1.7381 C   0  0  0  0  0  0  0  0  0  0  0  0
  -88.4472   31.1430   -2.1521 N   0  0  0  0  0  0  0  0  0  0  0  0
  -89.9410   29.8941   -3.5519 N   0  0  0  0  0  0  0  0  0  0  0  0
  -90.6316   29.9378   -4.3845 H   0  0  0  0  0  0  0  0  0  0  0  0
  -91.1590   28.0683   -2.5784 C   0  0  0  0  0  0  0  0  0  0  0  0
  -91.1468   26.8904   -1.8981 C   0  0  0  0  0  0  0  0  0  0  0  0
  -90.0004   26.2751   -1.4702 C   0  0  0  0  0  0  0  0  0  0  0  0
  -88.8109   26.8957   -1.7522 C   0  0  0  0  0  0  0  0  0  0  0  0
  -88.7588   28.0997   -2.4433 C   0  0  0  0  0  0  0  0  0  0  0  0
  -89.9195   28.6953   -2.8609 C   0  0  0  0  0  0  0  0  0  0  0  0
  -89.9917   25.0289   -0.7523 N   0  0  0  0  0  0  0  0  0  0  0  0
  -90.1761   25.1269    0.6749 C   0  0  0  0  0  0  0  0  0  0  0  0
  -90.3506   23.8388    1.3927 C   0  0  0  0  0  0  0  0  0  0  0  0
  -90.7006   22.7022    0.4826 C   0  0  0  0  0  0  0  0  0  0  0  0
  -89.6342   22.6038   -0.5887 C   0  0  0  0  0  0  0  0  0  0  0  0
  -89.8060   23.8124   -1.4732 C   0  0  0  0  0  0  0  0  0  0  0  0
  -90.8574   21.4760    1.2262 N   0  0  0  0  0  0  0  0  0  0  0  0
  -90.6636   21.6510    2.6343 C   0  0  0  0  0  0  0  0  0  0  0  0
  -92.0798   20.7769    0.9057 C   0  0  0  0  0  0  0  0  0  0  0  0
  -93.2525   29.1490   -2.0726 C   0  0  0  0  0  0  0  0  0  0  0  0
  -92.3222   28.6788   -3.0048 O   0  0  0  0  0  0  0  0  0  0  0  0
  -86.9818   32.1672   -0.5114 N   0  0  0  0  0  0  0  0  0  0  0  0
  -87.5753   32.3379    0.3261 H   0  0  0  0  0  0  0  0  0  0  0  0
  -85.6063   32.0329   -0.3453 C   0  0  0  0  0  0  0  0  0  0  0  0
  -84.6978   33.0646   -0.5829 C   0  0  0  0  0  0  0  0  0  0  0  0
  -83.3480   32.9356   -0.2920 C   0  0  0  0  0  0  0  0  0  0  0  0
  -82.8534   31.7802    0.2449 C   0  0  0  0  0  0  0  0  0  0  0  0
  -83.7440   30.7678    0.4771 C   0  0  0  0  0  0  0  0  0  0  0  0
  -85.1154   30.8456    0.1999 C   0  0  0  0  0  0  0  0  0  0  0  0
  -86.0571   29.4372    0.4433 S   0  0  0  0  0  0  0  0  0  0  0  0
  -87.5373   29.8765    0.5312 O   0  0  0  0  0  0  0  0  0  0  0  0
  -86.0698   28.4722   -0.7169 O   0  0  0  0  0  0  0  0  0  0  0  0
  -85.7674   28.5674    1.9495 C   0  0  0  0  0  0  0  0  0  0  0  0
  -86.6612   27.3263    2.0351 C   0  0  0  0  0  0  0  0  0  0  0  0
  -84.3840   28.1206    2.1818 C   0  0  0  0  0  0  0  0  0  0  0  0
 25 26  1  0  0  0
 26 10  1  0  0  0
 10 11  2  0  0  0
 11 12  1  0  0  0
 12 13  2  0  0  0
 13 14  1  0  0  0
 14 15  2  0  0  0
 15  8  1  0  0  0
  8  1  1  0  0  0
  1  2  2  0  0  0
  2  3  1  0  0  0
  3  4  2  0  0  0
  4  5  1  0  0  0
  4  6  1  0  0  0
  6 27  1  0  0  0
 27 29  1  0  0  0
 29 30  2  0  0  0
 30 31  1  0  0  0
 31 32  2  0  0  0
 32 33  1  0  0  0
 33 34  2  0  0  0
 34 35  1  0  0  0
 35 36  2  0  0  0
 35 37  2  0  0  0
 35 38  1  0  0  0
 38 39  1  0  0  0
 38 40  1  0  0  0
  6  7  2  0  0  0
 12 16  1  0  0  0
 16 17  1  0  0  0
 17 18  1  0  0  0
 18 19  1  0  0  0
 19 20  1  0  0  0
 20 21  1  0  0  0
 19 22  1  0  0  0
 22 23  1  0  0  0
 22 24  1  0  0  0
 15 10  1  0  0  0
  7  1  1  0  0  0
 21 16  1  0  0  0
 34 29  1  0  0  0
  8  9  1  0  0  0
 27 28  1  0  0  0
M  END
> <minimizedAffinity>
-7.85432

> <CNNscore>
0.0404594541

> <CNNaffinity>
6.6286001205

> <CNN_VS>
0.2681895494

> <CNNaffinity_variance>
0.5809882283

$$$$
[H]c1nc(N([H])c2c([H])c([H])c(N3C([H])([H])C([H])([H])C([H])(N(C([H])([H])[H])C([H])([H])[H])C([H])([H])C3([H])[H])c([H])c2OC([H])([H])[H])nc(N([H])c2c([H])c([H])c([H])c([H])c2S(=O)(=O)C([H])(C([H])([H])[H])C([H])([H])[H])c1Cl


 40 43  0  0  0  0  0  0  0  0999 V2000
  -89.6420   30.9840   -3.0216 C   0  0  0  0  0  0  0  0  0  0  0  0
  -89.0632   31.7602   -3.9315 N   0  0  0  0  0  0  0  0  0  0  0  0
  -87.9673   32.4885   -3.6843 C   0  0  0  0  0  0  0  0  0  0  0  0
  -87.3772   32.4662   -2.4499 C   0  0  0  0  0  0  0  0  0  0  0  0
  -85.9400   33.3896   -2.0745 Cl  0  0  0  0  0  0  0  0  0  0  0  0
  -87.9495   31.6578   -1.4409 C   0  0  0  0  0  0  0  0  0  0  0  0
  -89.0222   30.9906   -1.8047 N   0  0  0  0  0  0  0  0  0  0  0  0
  -90.8011   30.1801   -3.1937 N   0  0  0  0  0  0  0  0  0  0  0  0
  -91.6686   30.6713   -3.6162 H   0  0  0  0  0  0  0  0  0  0  0  0
  -92.0899   28.4706   -2.1068 C   0  0  0  0  0  0  0  0  0  0  0  0
  -92.2598   27.1560   -1.8015 C   0  0  0  0  0  0  0  0  0  0  0  0
  -91.4038   26.1675   -2.2092 C   0  0  0  0  0  0  0  0  0  0  0  0
  -90.3235   26.5434   -2.9649 C   0  0  0  0  0  0  0  0  0  0  0  0
  -90.0964   27.8701   -3.3090 C   0  0  0  0  0  0  0  0  0  0  0  0
  -90.9672   28.8405   -2.8890 C   0  0  0  0  0  0  0  0  0  0  0  0
  -91.5876   24.7783   -1.8854 N   0  0  0  0  0  0  0  0  0  0  0  0
  -90.3977   24.0641   -1.4921 C   0  0  0  0  0  0  0  0  0  0  0  0
  -90.6115   22.6857   -0.9831 C   0  0  0  0  0  0  0  0  0  0  0  0
  -92.0323   22.4174   -0.5934 C   0  0  0  0  0  0  0  0  0  0  0  0
  -92.9178   22.7152   -1.7858 C   0  0  0  0  0  0  0  0  0  0  0  0
  -92.8932   24.2110   -1.9717 C   0  0  0  0  0  0  0  0  0  0  0  0
  -92.1875   21.0677   -0.1082 N   0  0  0  0  0  0  0  0  0  0  0  0
  -91.1824   20.6999    0.8434 C   0  0  0  0  0  0  0  0  0  0  0  0
  -93.5286   20.7852    0.3473 C   0  0  0  0  0  0  0  0  0  0  0  0
  -94.2678   29.4990   -2.1846 C   0  0  0  0  0  0  0  0  0  0  0  0
  -92.9605   29.4585   -1.6897 O   0  0  0  0  0  0  0  0  0  0  0  0
  -87.3763   31.6556   -0.1503 N   0  0  0  0  0  0  0  0  0  0  0  0
  -87.8949   32.2104    0.5610 H   0  0  0  0  0  0  0  0  0  0  0  0
  -86.1965   31.0181    0.2229 C   0  0  0  0  0  0  0  0  0  0  0  0
  -84.9485   31.6416    0.2143 C   0  0  0  0  0  0  0  0  0  0  0  0
  -83.8124   31.0170    0.7065 C   0  0  0  0  0  0  0  0  0  0  0  0
  -83.8751   29.7539    1.2246 C   0  0  0  0  0  0  0  0  0  0  0  0
  -85.0986   29.1417    1.2324 C   0  0  0  0  0  0  0  0  0  0  0  0
  -86.2756   29.7266    0.7461 C   0  0  0  0  0  0  0  0  0  0  0  0
  -87.6918   28.7655    0.7261 S   0  0  0  0  0  0  0  0  0  0  0  0
  -87.6557   27.8574    1.9774 O   0  0  0  0  0  0  0  0  0  0  0  0
  -88.9807   29.5284    0.9116 O   0  0  0  0  0  0  0  0  0  0  0  0
  -87.8428   27.6438   -0.6260 C   0  0  0  0  0  0  0  0  0  0  0  0
  -86.9057   28.0483   -1.7684 C   0  0  0  0  0  0  0  0  0  0  0  0
  -87.5713   26.2286   -0.3248 C   0  0  0  0  0  0  0  0  0  0  0  0
 25 26  1  0  0  0
 26 10  1  0  0  0
 10 11  2  0  0  0
 11 12  1  0  0  0
 12 13  2  0  0  0
 13 14  1  0  0  0
 14 15  2  0  0  0
 15  8  1  0  0  0
  8  1  1  0  0  0
  1  2  2  0  0  0
  2  3  1  0  0  0
  3  4  2  0  0  0
  4  5  1  0  0  0
  4  6  1  0  0  0
  6 27  1  0  0  0
 27 29  1  0  0  0
 29 30  2  0  0  0
 30 31  1  0  0  0
 31 32  2  0  0  0
 32 33  1  0  0  0
 33 34  2  0  0  0
 34 35  1  0  0  0
 35 36  2  0  0  0
 35 37  2  0  0  0
 35 38  1  0  0  0
 38 39  1  0  0  0
 38 40  1  0  0  0
  6  7  2  0  0  0
 12 16  1  0  0  0
 16 17  1  0  0  0
 17 18  1  0  0  0
 18 19  1  0  0  0
 19 20  1  0  0  0
 20 21  1  0  0  0
 19 22  1  0  0  0
 22 23  1  0  0  0
 22 24  1  0  0  0
 15 10  1  0  0  0
  7  1  1  0  0  0
 21 16  1  0  0  0
 34 29  1  0  0  0
  8  9  1  0  0  0
 27 28  1  0  0  0
M  END
> <minimizedAffinity>
-6.99673

> <CNNscore>
0.0381204970

> <CNNaffinity>
6.5561790466

> <CNN_VS>
0.2499248087

> <CNNaffinity_variance>
0.3570785224

$$$$
[H]c1nc(N([H])c2c([H])c([H])c(N3C([H])([H])C([H])([H])C([H])(N(C([H])([H])[H])C([H])([H])[H])C([H])([H])C3([H])[H])c([H])c2OC([H])([H])[H])nc(N([H])c2c([H])c([H])c([H])c([H])c2S(=O)(=O)C([H])(C([H])([H])[H])C([H])([H])[H])c1Cl


 40 43  0  0  0  0  0  0  0  0999 V2000
  -86.8119   27.0697    1.6935 C   0  0  0  0  0  0  0  0  0  0  0  0
  -85.7101   27.2742    2.4075 N   0  0  0  0  0  0  0  0  0  0  0  0
  -84.8086   28.2185    2.1108 C   0  0  0  0  0  0  0  0  0  0  0  0
  -84.9852   29.0384    1.0296 C   0  0  0  0  0  0  0  0  0  0  0  0
  -83.8452   30.2939    0.6015 Cl  0  0  0  0  0  0  0  0  0  0  0  0
  -86.1401   28.8669    0.2321 C   0  0  0  0  0  0  0  0  0  0  0  0
  -86.9495   27.9082    0.6244 N   0  0  0  0  0  0  0  0  0  0  0  0
  -87.8191   26.0961    1.9324 N   0  0  0  0  0  0  0  0  0  0  0  0
  -87.8280   25.6448    2.9165 H   0  0  0  0  0  0  0  0  0  0  0  0
  -90.1368   25.6170    1.5283 C   0  0  0  0  0  0  0  0  0  0  0  0
  -91.1048   25.1741    0.6815 C   0  0  0  0  0  0  0  0  0  0  0  0
  -90.8568   24.7536   -0.5982 C   0  0  0  0  0  0  0  0  0  0  0  0
  -89.5561   24.7883   -1.0305 C   0  0  0  0  0  0  0  0  0  0  0  0
  -88.5240   25.2302   -0.2122 C   0  0  0  0  0  0  0  0  0  0  0  0
  -88.7979   25.6457    1.0640 C   0  0  0  0  0  0  0  0  0  0  0  0
  -91.8833   24.2873   -1.4910 N   0  0  0  0  0  0  0  0  0  0  0  0
  -93.1905   24.8663   -1.2994 C   0  0  0  0  0  0  0  0  0  0  0  0
  -94.2038   24.5267   -2.3303 C   0  0  0  0  0  0  0  0  0  0  0  0
  -93.6019   23.9769   -3.5865 C   0  0  0  0  0  0  0  0  0  0  0  0
  -92.7527   22.7766   -3.2224 C   0  0  0  0  0  0  0  0  0  0  0  0
  -91.5559   23.3114   -2.4781 C   0  0  0  0  0  0  0  0  0  0  0  0
  -94.6253   23.6621   -4.5534 N   0  0  0  0  0  0  0  0  0  0  0  0
  -95.9117   23.4631   -3.9565 C   0  0  0  0  0  0  0  0  0  0  0  0
  -94.6530   24.5860   -5.6631 C   0  0  0  0  0  0  0  0  0  0  0  0
  -90.7590   25.1121    3.8009 C   0  0  0  0  0  0  0  0  0  0  0  0
  -90.3998   26.0387    2.8170 O   0  0  0  0  0  0  0  0  0  0  0  0
  -86.3164   29.6778   -0.9105 N   0  0  0  0  0  0  0  0  0  0  0  0
  -85.7487   29.4004   -1.7372 H   0  0  0  0  0  0  0  0  0  0  0  0
  -87.1371   30.7983   -1.0034 C   0  0  0  0  0  0  0  0  0  0  0  0
  -86.7505   32.0723   -0.5866 C   0  0  0  0  0  0  0  0  0  0  0  0
  -87.5447   33.1882   -0.8040 C   0  0  0  0  0  0  0  0  0  0  0  0
  -88.7482   33.0791   -1.4425 C   0  0  0  0  0  0  0  0  0  0  0  0
  -89.1280   31.8296   -1.8505 C   0  0  0  0  0  0  0  0  0  0  0  0
  -88.3652   30.6706   -1.6541 C   0  0  0  0  0  0  0  0  0  0  0  0
  -89.0543   29.1759   -2.1238 S   0  0  0  0  0  0  0  0  0  0  0  0
  -89.8990   29.4316   -3.3938 O   0  0  0  0  0  0  0  0  0  0  0  0
  -88.0637   28.1383   -2.5923 O   0  0  0  0  0  0  0  0  0  0  0  0
  -90.1875   28.4566   -0.9804 C   0  0  0  0  0  0  0  0  0  0  0  0
  -90.2168   29.2579    0.3249 C   0  0  0  0  0  0  0  0  0  0  0  0
  -91.5798   28.3318   -1.4423 C   0  0  0  0  0  0  0  0  0  0  0  0
 25 26  1  0  0  0
 26 10  1  0  0  0
 10 11  2  0  0  0
 11 12  1  0  0  0
 12 13  2  0  0  0
 13 14  1  0  0  0
 14 15  2  0  0  0
 15  8  1  0  0  0
  8  1  1  0  0  0
  1  2  2  0  0  0
  2  3  1  0  0  0
  3  4  2  0  0  0
  4  5  1  0  0  0
  4  6  1  0  0  0
  6 27  1  0  0  0
 27 29  1  0  0  0
 29 30  2  0  0  0
 30 31  1  0  0  0
 31 32  2  0  0  0
 32 33  1  0  0  0
 33 34  2  0  0  0
 34 35  1  0  0  0
 35 36  2  0  0  0
 35 37  2  0  0  0
 35 38  1  0  0  0
 38 39  1  0  0  0
 38 40  1  0  0  0
  6  7  2  0  0  0
 12 16  1  0  0  0
 16 17  1  0  0  0
 17 18  1  0  0  0
 18 19  1  0  0  0
 19 20  1  0  0  0
 20 21  1  0  0  0
 19 22  1  0  0  0
 22 23  1  0  0  0
 22 24  1  0  0  0
 15 10  1  0  0  0
  7  1  1  0  0  0
 21 16  1  0  0  0
 34 29  1  0  0  0
  8  9  1  0  0  0
 27 28  1  0  0  0
M  END
> <minimizedAffinity>
-7.69427

> <CNNscore>
0.0282250755

> <CNNaffinity>
6.5479826927

> <CNN_VS>
0.1848172992

> <CNNaffinity_variance>
0.3155752420

$$$$
[H]c1nn2c(N([H])C3([H])C([H])([H])C3([H])[H])c([H])c(N([H])c3c([H])c([H])c(N4C([H])([H])C([H])([H])N(C([H])([H])[H])C([H])([H])C4([H])[H])c(N([H])C(=O)C([H])([H])[H])c3[H])nc2c1C#N


 36 40  0  0  0  0  0  0  0  0999 V2000
  -90.3859   27.2311   -0.3891 C   0  0  0  0  0  0  0  0  0  0  0  0
  -90.3752   27.7824   -1.6486 C   0  0  0  0  0  0  0  0  0  0  0  0
  -90.0435   29.0922   -1.8835 C   0  0  0  0  0  0  0  0  0  0  0  0
  -89.6949   29.9295   -0.8043 C   0  0  0  0  0  0  0  0  0  0  0  0
  -89.7127   29.3631    0.4418 C   0  0  0  0  0  0  0  0  0  0  0  0
  -90.0465   28.0407    0.6926 C   0  0  0  0  0  0  0  0  0  0  0  0
  -91.9544   22.0454    0.3017 C   0  0  0  0  0  0  0  0  0  0  0  0
  -91.2788   23.0703   -0.4504 N   0  0  0  0  0  0  0  0  0  0  0  0
  -90.1792   23.6084    0.3199 C   0  0  0  0  0  0  0  0  0  0  0  0
  -89.6398   24.8842   -0.3354 C   0  0  0  0  0  0  0  0  0  0  0  0
  -90.7073   25.8595   -0.2735 N   0  0  0  0  0  0  0  0  0  0  0  0
  -92.0566   25.3708   -0.0956 C   0  0  0  0  0  0  0  0  0  0  0  0
  -92.1833   24.1019   -0.9070 C   0  0  0  0  0  0  0  0  0  0  0  0
  -90.1074   27.4597    1.9724 N   0  0  0  0  0  0  0  0  0  0  0  0
  -90.8170   27.8568    3.1055 C   0  0  0  0  0  0  0  0  0  0  0  0
  -90.7007   27.0403    4.3636 C   0  0  0  0  0  0  0  0  0  0  0  0
  -91.5458   28.8481    3.1489 O   0  0  0  0  0  0  0  0  0  0  0  0
  -89.5326   26.5592    2.1064 H   0  0  0  0  0  0  0  0  0  0  0  0
  -89.3911   31.2790   -1.0997 N   0  0  0  0  0  0  0  0  0  0  0  0
  -90.2155   31.9428   -1.3148 H   0  0  0  0  0  0  0  0  0  0  0  0
  -88.1007   31.8518   -1.1410 C   0  0  0  0  0  0  0  0  0  0  0  0
  -87.8369   32.7872   -2.1581 C   0  0  0  0  0  0  0  0  0  0  0  0
  -86.5798   33.3673   -2.2732 C   0  0  0  0  0  0  0  0  0  0  0  0
  -85.6484   32.9974   -1.3833 N   0  0  0  0  0  0  0  0  0  0  0  0
  -84.3986   33.3644   -1.2510 N   0  0  0  0  0  0  0  0  0  0  0  0
  -83.7973   32.7476   -0.2213 C   0  0  0  0  0  0  0  0  0  0  0  0
  -84.7379   31.9090    0.3639 C   0  0  0  0  0  0  0  0  0  0  0  0
  -85.8862   32.0967   -0.3965 C   0  0  0  0  0  0  0  0  0  0  0  0
  -87.0890   31.5587   -0.3064 N   0  0  0  0  0  0  0  0  0  0  0  0
  -86.3533   34.3042   -3.3234 N   0  0  0  0  0  0  0  0  0  0  0  0
  -85.3643   34.5137   -3.6088 H   0  0  0  0  0  0  0  0  0  0  0  0
  -87.3801   35.0057   -4.0452 C   0  0  0  0  0  0  0  0  0  0  0  0
  -87.0099   36.2514   -4.8000 C   0  0  0  0  0  0  0  0  0  0  0  0
  -87.9293   36.3065   -3.6310 C   0  0  0  0  0  0  0  0  0  0  0  0
  -84.5288   31.0533    1.4959 C   0  0  0  0  0  0  0  0  0  0  0  0
  -84.3387   30.3614    2.4039 N   0  0  0  0  0  0  0  0  0  0  0  0
  7  8  1  0  0  0
  8  9  1  0  0  0
  9 10  1  0  0  0
 10 11  1  0  0  0
 11 12  1  0  0  0
 12 13  1  0  0  0
 11  1  1  0  0  0
  1  2  2  0  0  0
  2  3  1  0  0  0
  3  4  2  0  0  0
  4 19  1  0  0  0
 19 21  1  0  0  0
 21 22  1  0  0  0
 22 23  2  0  0  0
 23 30  1  0  0  0
 30 32  1  0  0  0
 32 33  1  0  0  0
 33 34  1  0  0  0
 23 24  1  0  0  0
 24 25  1  0  0  0
 25 26  2  0  0  0
 26 27  1  0  0  0
 27 35  1  0  0  0
 35 36  3  0  0  0
 27 28  2  0  0  0
 28 29  1  0  0  0
  4  5  1  0  0  0
  5  6  2  0  0  0
  6 14  1  0  0  0
 14 15  1  0  0  0
 15 16  1  0  0  0
 15 17  2  0  0  0
 13  8  1  0  0  0
  6  1  1  0  0  0
 29 21  2  0  0  0
 34 32  1  0  0  0
 28 24  1  0  0  0
 19 20  1  0  0  0
 30 31  1  0  0  0
 14 18  1  0  0  0
M  END
> <minimizedAffinity>
-8.42359

> <CNNscore>
0.4655270278

> <CNNaffinity>
7.0178399086

> <CNN_VS>
3.2669942379

> <CNNaffinity_variance>
0.0101440577

$$$$
[H]c1nn2c(N([H])C3([H])C([H])([H])C3([H])[H])c([H])c(N([H])c3c([H])c([H])c(N4C([H])([H])C([H])([H])N(C([H])([H])[H])C([H])([H])C4([H])[H])c(N([H])C(=O)C([H])([H])[H])c3[H])nc2c1C#N


 36 40  0  0  0  0  0  0  0  0999 V2000
  -91.2865   28.2607   -2.3031 C   0  0  0  0  0  0  0  0  0  0  0  0
  -90.7348   27.2634   -1.5340 C   0  0  0  0  0  0  0  0  0  0  0  0
  -89.7299   27.4928   -0.6294 C   0  0  0  0  0  0  0  0  0  0  0  0
  -89.2241   28.7979   -0.4622 C   0  0  0  0  0  0  0  0  0  0  0  0
  -89.7849   29.7768   -1.2375 C   0  0  0  0  0  0  0  0  0  0  0  0
  -90.8006   29.5580   -2.1559 C   0  0  0  0  0  0  0  0  0  0  0  0
  -95.5966   26.8077   -5.3266 C   0  0  0  0  0  0  0  0  0  0  0  0
  -94.3838   27.5598   -5.1367 N   0  0  0  0  0  0  0  0  0  0  0  0
  -93.2600   26.6611   -4.9894 C   0  0  0  0  0  0  0  0  0  0  0  0
  -92.0247   27.4240   -4.4991 C   0  0  0  0  0  0  0  0  0  0  0  0
  -92.3435   27.9117   -3.1743 N   0  0  0  0  0  0  0  0  0  0  0  0
  -93.7398   28.0160   -2.8129 C   0  0  0  0  0  0  0  0  0  0  0  0
  -94.4843   28.4945   -4.0381 C   0  0  0  0  0  0  0  0  0  0  0  0
  -91.3558   30.5487   -2.9863 N   0  0  0  0  0  0  0  0  0  0  0  0
  -90.8814   31.0861   -4.1827 C   0  0  0  0  0  0  0  0  0  0  0  0
  -91.6869   32.1512   -4.8752 C   0  0  0  0  0  0  0  0  0  0  0  0
  -89.8291   30.7433   -4.7218 O   0  0  0  0  0  0  0  0  0  0  0  0
  -92.3015   30.9523   -2.6671 H   0  0  0  0  0  0  0  0  0  0  0  0
  -88.1676   28.9728    0.4619 N   0  0  0  0  0  0  0  0  0  0  0  0
  -88.1543   28.3361    1.3343 H   0  0  0  0  0  0  0  0  0  0  0  0
  -87.1150   29.9085    0.3553 C   0  0  0  0  0  0  0  0  0  0  0  0
  -87.3919   31.1277   -0.2897 C   0  0  0  0  0  0  0  0  0  0  0  0
  -86.3943   32.0806   -0.4537 C   0  0  0  0  0  0  0  0  0  0  0  0
  -85.1776   31.7850    0.0242 N   0  0  0  0  0  0  0  0  0  0  0  0
  -84.0632   32.4723    0.0103 N   0  0  0  0  0  0  0  0  0  0  0  0
  -83.0538   31.8098    0.5970 C   0  0  0  0  0  0  0  0  0  0  0  0
  -83.5568   30.5886    1.0282 C   0  0  0  0  0  0  0  0  0  0  0  0
  -84.8937   30.6141    0.6487 C   0  0  0  0  0  0  0  0  0  0  0  0
  -85.8582   29.7235    0.7935 N   0  0  0  0  0  0  0  0  0  0  0  0
  -86.7160   33.2988   -1.1204 N   0  0  0  0  0  0  0  0  0  0  0  0
  -86.4773   34.2086   -0.6530 H   0  0  0  0  0  0  0  0  0  0  0  0
  -87.3529   33.3979   -2.4057 C   0  0  0  0  0  0  0  0  0  0  0  0
  -87.4982   34.7540   -3.0370 C   0  0  0  0  0  0  0  0  0  0  0  0
  -88.6918   33.9720   -2.6141 C   0  0  0  0  0  0  0  0  0  0  0  0
  -82.8252   29.5575    1.7057 C   0  0  0  0  0  0  0  0  0  0  0  0
  -82.2408   28.7112    2.2366 N   0  0  0  0  0  0  0  0  0  0  0  0
  7  8  1  0  0  0
  8  9  1  0  0  0
  9 10  1  0  0  0
 10 11  1  0  0  0
 11 12  1  0  0  0
 12 13  1  0  0  0
 11  1  1  0  0  0
  1  2  2  0  0  0
  2  3  1  0  0  0
  3  4  2  0  0  0
  4 19  1  0  0  0
 19 21  1  0  0  0
 21 22  1  0  0  0
 22 23  2  0  0  0
 23 30  1  0  0  0
 30 32  1  0  0  0
 32 33  1  0  0  0
 33 34  1  0  0  0
 23 24  1  0  0  0
 24 25  1  0  0  0
 25 26  2  0  0  0
 26 27  1  0  0  0
 27 35  1  0  0  0
 35 36  3  0  0  0
 27 28  2  0  0  0
 28 29  1  0  0  0
  4  5  1  0  0  0
  5  6  2  0  0  0
  6 14  1  0  0  0
 14 15  1  0  0  0
 15 16  1  0  0  0
 15 17  2  0  0  0
 13  8  1  0  0  0
  6  1  1  0  0  0
 29 21  2  0  0  0
 34 32  1  0  0  0
 28 24  1  0  0  0
 19 20  1  0  0  0
 30 31  1  0  0  0
 14 18  1  0  0  0
M  END
> <minimizedAffinity>
-7.55551

> <CNNscore>
0.3104494810

> <CNNaffinity>
6.8009376526

> <CNN_VS>
2.1113476753

> <CNNaffinity_variance>
0.3231640458

$$$$
[H]c1nn2c(N([H])C3([H])C([H])([H])C3([H])[H])c([H])c(N([H])c3c([H])c([H])c(N4C([H])([H])C([H])([H])N(C([H])([H])[H])C([H])([H])C4([H])[H])c(N([H])C(=O)C([H])([H])[H])c3[H])nc2c1C#N


 36 40  0  0  0  0  0  0  0  0999 V2000
  -90.2329   25.7147    0.1910 C   0  0  0  0  0  0  0  0  0  0  0  0
  -90.6613   26.4553   -0.8853 C   0  0  0  0  0  0  0  0  0  0  0  0
  -90.3998   27.7952   -1.0163 C   0  0  0  0  0  0  0  0  0  0  0  0
  -89.6623   28.4645   -0.0187 C   0  0  0  0  0  0  0  0  0  0  0  0
  -89.2457   27.7108    1.0454 C   0  0  0  0  0  0  0  0  0  0  0  0
  -89.5039   26.3560    1.1900 C   0  0  0  0  0  0  0  0  0  0  0  0
  -91.5615   20.4329    0.5999 C   0  0  0  0  0  0  0  0  0  0  0  0
  -91.2389   21.5964   -0.1842 N   0  0  0  0  0  0  0  0  0  0  0  0
  -89.8916   22.0342    0.1078 C   0  0  0  0  0  0  0  0  0  0  0  0
  -89.6386   23.4229   -0.4886 C   0  0  0  0  0  0  0  0  0  0  0  0
  -90.5296   24.3327    0.1991 N   0  0  0  0  0  0  0  0  0  0  0  0
  -91.6855   23.7709    0.8620 C   0  0  0  0  0  0  0  0  0  0  0  0
  -92.2073   22.6569   -0.0162 C   0  0  0  0  0  0  0  0  0  0  0  0
  -89.1158   25.5813    2.2983 N   0  0  0  0  0  0  0  0  0  0  0  0
  -89.6629   25.5101    3.5793 C   0  0  0  0  0  0  0  0  0  0  0  0
  -89.0421   24.5830    4.5882 C   0  0  0  0  0  0  0  0  0  0  0  0
  -90.6369   26.1659    3.9492 O   0  0  0  0  0  0  0  0  0  0  0  0
  -88.2761   24.9260    2.1415 H   0  0  0  0  0  0  0  0  0  0  0  0
  -89.4474   29.8521   -0.1892 N   0  0  0  0  0  0  0  0  0  0  0  0
  -90.3156   30.4817   -0.3173 H   0  0  0  0  0  0  0  0  0  0  0  0
  -88.1947   30.5042   -0.2079 C   0  0  0  0  0  0  0  0  0  0  0  0
  -88.0889   31.6874   -0.9615 C   0  0  0  0  0  0  0  0  0  0  0  0
  -86.8781   32.3634   -1.0457 C   0  0  0  0  0  0  0  0  0  0  0  0
  -85.8353   31.8409   -0.3856 N   0  0  0  0  0  0  0  0  0  0  0  0
  -84.5944   32.2469   -0.2883 N   0  0  0  0  0  0  0  0  0  0  0  0
  -83.8530   31.4274    0.4739 C   0  0  0  0  0  0  0  0  0  0  0  0
  -84.6845   30.4025    0.9080 C   0  0  0  0  0  0  0  0  0  0  0  0
  -85.9202   30.7008    0.3456 C   0  0  0  0  0  0  0  0  0  0  0  0
  -87.0817   30.0756    0.4114 N   0  0  0  0  0  0  0  0  0  0  0  0
  -86.8132   33.5540   -1.8269 N   0  0  0  0  0  0  0  0  0  0  0  0
  -86.1220   34.2977   -1.5576 H   0  0  0  0  0  0  0  0  0  0  0  0
  -87.6274   33.8366   -2.9778 C   0  0  0  0  0  0  0  0  0  0  0  0
  -87.1579   34.8753   -3.9572 C   0  0  0  0  0  0  0  0  0  0  0  0
  -88.3936   35.0806   -3.1534 C   0  0  0  0  0  0  0  0  0  0  0  0
  -84.3108   29.2991    1.7448 C   0  0  0  0  0  0  0  0  0  0  0  0
  -84.0128   28.4215    2.4378 N   0  0  0  0  0  0  0  0  0  0  0  0
  7  8  1  0  0  0
  8  9  1  0  0  0
  9 10  1  0  0  0
 10 11  1  0  0  0
 11 12  1  0  0  0
 12 13  1  0  0  0
 11  1  1  0  0  0
  1  2  2  0  0  0
  2  3  1  0  0  0
  3  4  2  0  0  0
  4 19  1  0  0  0
 19 21  1  0  0  0
 21 22  1  0  0  0
 22 23  2  0  0  0
 23 30  1  0  0  0
 30 32  1  0  0  0
 32 33  1  0  0  0
 33 34  1  0  0  0
 23 24  1  0  0  0
 24 25  1  0  0  0
 25 26  2  0  0  0
 26 27  1  0  0  0
 27 35  1  0  0  0
 35 36  3  0  0  0
 27 28  2  0  0  0
 28 29  1  0  0  0
  4  5  1  0  0  0
  5  6  2  0  0  0
  6 14  1  0  0  0
 14 15  1  0  0  0
 15 16  1  0  0  0
 15 17  2  0  0  0
 13  8  1  0  0  0
  6  1  1  0  0  0
 29 21  2  0  0  0
 34 32  1  0  0  0
 28 24  1  0  0  0
 19 20  1  0  0  0
 30 31  1  0  0  0
 14 18  1  0  0  0
M  END
> <minimizedAffinity>
-8.09871

> <CNNscore>
0.2335871905

> <CNNaffinity>
6.8819265366

> <CNN_VS>
1.6075298786

> <CNNaffinity_variance>
0.2083195150

$$$$
[H]c1nn2c(N([H])C3([H])C([H])([H])C3([H])[H])c([H])c(N([H])c3c([H])c([H])c(N4C([H])([H])C([H])([H])N(C([H])([H])[H])C([H])([H])C4([H])[H])c(N([H])C(=O)C([H])([H])[H])c3[H])nc2c1C#N


 36 40  0  0  0  0  0  0  0  0999 V2000
  -89.8994   24.7481   -0.1446 C   0  0  0  0  0  0  0  0  0  0  0  0
  -89.9614   25.1632   -1.4539 C   0  0  0  0  0  0  0  0  0  0  0  0
  -89.2847   26.2623   -1.9175 C   0  0  0  0  0  0  0  0  0  0  0  0
  -88.4847   27.0149   -1.0340 C   0  0  0  0  0  0  0  0  0  0  0  0
  -88.4366   26.5869    0.2653 C   0  0  0  0  0  0  0  0  0  0  0  0
  -89.1162   25.4781    0.7467 C   0  0  0  0  0  0  0  0  0  0  0  0
  -92.4257   20.0248    0.9222 C   0  0  0  0  0  0  0  0  0  0  0  0
  -91.9746   21.3329    1.3196 N   0  0  0  0  0  0  0  0  0  0  0  0
  -92.6305   22.3474    0.5242 C   0  0  0  0  0  0  0  0  0  0  0  0
  -91.9547   23.7076    0.7276 C   0  0  0  0  0  0  0  0  0  0  0  0
  -90.6096   23.5783    0.2094 N   0  0  0  0  0  0  0  0  0  0  0  0
  -90.0620   22.2460    0.0822 C   0  0  0  0  0  0  0  0  0  0  0  0
  -90.5342   21.4522    1.2787 C   0  0  0  0  0  0  0  0  0  0  0  0
  -89.1062   25.0534    2.0879 N   0  0  0  0  0  0  0  0  0  0  0  0
  -89.6875   25.6310    3.2165 C   0  0  0  0  0  0  0  0  0  0  0  0
  -89.5192   24.9571    4.5508 C   0  0  0  0  0  0  0  0  0  0  0  0
  -90.3411   26.6741    3.1967 O   0  0  0  0  0  0  0  0  0  0  0  0
  -88.5844   24.1324    2.2844 H   0  0  0  0  0  0  0  0  0  0  0  0
  -87.8331   28.1558   -1.5579 N   0  0  0  0  0  0  0  0  0  0  0  0
  -87.9090   28.3325   -2.6207 H   0  0  0  0  0  0  0  0  0  0  0  0
  -87.0844   29.0990   -0.8198 C   0  0  0  0  0  0  0  0  0  0  0  0
  -87.2898   30.4607   -1.1074 C   0  0  0  0  0  0  0  0  0  0  0  0
  -86.5656   31.4393   -0.4382 C   0  0  0  0  0  0  0  0  0  0  0  0
  -85.6776   31.0283    0.4776 N   0  0  0  0  0  0  0  0  0  0  0  0
  -84.8645   31.7086    1.2460 N   0  0  0  0  0  0  0  0  0  0  0  0
  -84.1247   30.9098    2.0313 C   0  0  0  0  0  0  0  0  0  0  0  0
  -84.4895   29.5995    1.7477 C   0  0  0  0  0  0  0  0  0  0  0  0
  -85.4672   29.7193    0.7671 C   0  0  0  0  0  0  0  0  0  0  0  0
  -86.1678   28.8067    0.1184 N   0  0  0  0  0  0  0  0  0  0  0  0
  -86.7992   32.8067   -0.7665 N   0  0  0  0  0  0  0  0  0  0  0  0
  -87.3260   33.4070   -0.0843 H   0  0  0  0  0  0  0  0  0  0  0  0
  -86.3690   33.4547   -1.9758 C   0  0  0  0  0  0  0  0  0  0  0  0
  -87.2654   34.4868   -2.6003 C   0  0  0  0  0  0  0  0  0  0  0  0
  -86.9685   33.2053   -3.2964 C   0  0  0  0  0  0  0  0  0  0  0  0
  -83.9498   28.4155    2.3513 C   0  0  0  0  0  0  0  0  0  0  0  0
  -83.5348   27.4522    2.8406 N   0  0  0  0  0  0  0  0  0  0  0  0
  7  8  1  0  0  0
  8  9  1  0  0  0
  9 10  1  0  0  0
 10 11  1  0  0  0
 11 12  1  0  0  0
 12 13  1  0  0  0
 11  1  1  0  0  0
  1  2  2  0  0  0
  2  3  1  0  0  0
  3  4  2  0  0  0
  4 19  1  0  0  0
 19 21  1  0  0  0
 21 22  1  0  0  0
 22 23  2  0  0  0
 23 30  1  0  0  0
 30 32  1  0  0  0
 32 33  1  0  0  0
 33 34  1  0  0  0
 23 24  1  0  0  0
 24 25  1  0  0  0
 25 26  2  0  0  0
 26 27  1  0  0  0
 27 35  1  0  0  0
 35 36  3  0  0  0
 27 28  2  0  0  0
 28 29  1  0  0  0
  4  5  1  0  0  0
  5  6  2  0  0  0
  6 14  1  0  0  0
 14 15  1  0  0  0
 15 16  1  0  0  0
 15 17  2  0  0  0
 13  8  1  0  0  0
  6  1  1  0  0  0
 29 21  2  0  0  0
 34 32  1  0  0  0
 28 24  1  0  0  0
 19 20  1  0  0  0
 30 31  1  0  0  0
 14 18  1  0  0  0
M  END
> <minimizedAffinity>
-8.73324

> <CNNscore>
0.1336938441

> <CNNaffinity>
6.6540122032

> <CNN_VS>
0.8896004558

> <CNNaffinity_variance>
0.1171742827

$$$$
[H]c1nn2c(N([H])C3([H])C([H])([H])C3([H])[H])c([H])c(N([H])c3c([H])c([H])c(N4C([H])([H])C([H])([H])N(C([H])([H])[H])C([H])([H])C4([H])[H])c(N([H])C(=O)C([H])([H])[H])c3[H])nc2c1C#N


 36 40  0  0  0  0  0  0  0  0999 V2000
  -90.8758   25.3376   -1.3286 C   0  0  0  0  0  0  0  0  0  0  0  0
  -90.7731   26.3734   -2.2269 C   0  0  0  0  0  0  0  0  0  0  0  0
  -89.6228   27.1016   -2.3929 C   0  0  0  0  0  0  0  0  0  0  0  0
  -88.4835   26.7944   -1.6217 C   0  0  0  0  0  0  0  0  0  0  0  0
  -88.6055   25.7610   -0.7322 C   0  0  0  0  0  0  0  0  0  0  0  0
  -89.7626   25.0177   -0.5545 C   0  0  0  0  0  0  0  0  0  0  0  0
  -95.5985   22.6697   -0.6901 C   0  0  0  0  0  0  0  0  0  0  0  0
  -94.6850   23.4461   -1.4872 N   0  0  0  0  0  0  0  0  0  0  0  0
  -93.4546   22.7128   -1.6884 C   0  0  0  0  0  0  0  0  0  0  0  0
  -92.3753   23.6283   -2.2758 C   0  0  0  0  0  0  0  0  0  0  0  0
  -92.1005   24.6342   -1.2722 N   0  0  0  0  0  0  0  0  0  0  0  0
  -93.1050   24.8656   -0.2580 C   0  0  0  0  0  0  0  0  0  0  0  0
  -94.4537   24.7610   -0.9322 C   0  0  0  0  0  0  0  0  0  0  0  0
  -89.9114   23.9810    0.3848 N   0  0  0  0  0  0  0  0  0  0  0  0
  -89.8413   22.5985    0.2143 C   0  0  0  0  0  0  0  0  0  0  0  0
  -90.0415   21.7043    1.4073 C   0  0  0  0  0  0  0  0  0  0  0  0
  -89.6230   22.0483   -0.8652 O   0  0  0  0  0  0  0  0  0  0  0  0
  -90.0932   24.2904    1.3999 H   0  0  0  0  0  0  0  0  0  0  0  0
  -87.3339   27.5962   -1.8116 N   0  0  0  0  0  0  0  0  0  0  0  0
  -86.7644   27.4494   -2.7175 H   0  0  0  0  0  0  0  0  0  0  0  0
  -86.8512   28.5825   -0.9232 C   0  0  0  0  0  0  0  0  0  0  0  0
  -87.2799   29.9068   -1.1270 C   0  0  0  0  0  0  0  0  0  0  0  0
  -86.8211   30.9301   -0.3070 C   0  0  0  0  0  0  0  0  0  0  0  0
  -85.9650   30.5983    0.6693 N   0  0  0  0  0  0  0  0  0  0  0  0
  -85.3729   31.3358    1.5747 N   0  0  0  0  0  0  0  0  0  0  0  0
  -84.5760   30.6103    2.3752 C   0  0  0  0  0  0  0  0  0  0  0  0
  -84.6586   29.2893    1.9525 C   0  0  0  0  0  0  0  0  0  0  0  0
  -85.5414   29.3262    0.8795 C   0  0  0  0  0  0  0  0  0  0  0  0
  -85.9915   28.3699    0.0875 N   0  0  0  0  0  0  0  0  0  0  0  0
  -87.2746   32.2589   -0.5538 N   0  0  0  0  0  0  0  0  0  0  0  0
  -87.8332   32.7481    0.1891 H   0  0  0  0  0  0  0  0  0  0  0  0
  -87.0310   33.0087   -1.7563 C   0  0  0  0  0  0  0  0  0  0  0  0
  -88.1900   33.6856   -2.4325 C   0  0  0  0  0  0  0  0  0  0  0  0
  -87.4586   32.5714   -3.0947 C   0  0  0  0  0  0  0  0  0  0  0  0
  -83.9672   28.1684    2.5207 C   0  0  0  0  0  0  0  0  0  0  0  0
  -83.4139   27.2717    2.9994 N   0  0  0  0  0  0  0  0  0  0  0  0
  7  8  1  0  0  0
  8  9  1  0  0  0
  9 10  1  0  0  0
 10 11  1  0  0  0
 11 12  1  0  0  0
 12 13  1  0  0  0
 11  1  1  0  0  0
  1  2  2  0  0  0
  2  3  1  0  0  0
  3  4  2  0  0  0
  4 19  1  0  0  0
 19 21  1  0  0  0
 21 22  1  0  0  0
 22 23  2  0  0  0
 23 30  1  0  0  0
 30 32  1  0  0  0
 32 33  1  0  0  0
 33 34  1  0  0  0
 23 24  1  0  0  0
 24 25  1  0  0  0
 25 26  2  0  0  0
 26 27  1  0  0  0
 27 35  1  0  0  0
 35 36  3  0  0  0
 27 28  2  0  0  0
 28 29  1  0  0  0
  4  5  1  0  0  0
  5  6  2  0  0  0
  6 14  1  0  0  0
 14 15  1  0  0  0
 15 16  1  0  0  0
 15 17  2  0  0  0
 13  8  1  0  0  0
  6  1  1  0  0  0
 29 21  2  0  0  0
 34 32  1  0  0  0
 28 24  1  0  0  0
 19 20  1  0  0  0
 30 31  1  0  0  0
 14 18  1  0  0  0
M  END
> <minimizedAffinity>
-7.71890

> <CNNscore>
0.1127734333

> <CNNaffinity>
6.3464822769

> <CNN_VS>
0.7157145739

> <CNNaffinity_variance>
0.2425671071

$$$$
[H]c1nn2c(N([H])C3([H])C([H])([H])C3([H])[H])c([H])c(N([H])c3c([H])c([H])c(N4C([H])([H])C([H])([H])N(C([H])([H])[H])C([H])([H])C4([H])[H])c(N([H])C(=O)C([H])([H])[H])c3[H])nc2c1C#N


 36 40  0  0  0  0  0  0  0  0999 V2000
  -89.6501   31.9611   -3.8560 C   0  0  0  0  0  0  0  0  0  0  0  0
  -88.3444   31.6232   -4.1233 C   0  0  0  0  0  0  0  0  0  0  0  0
  -87.7563   30.4853   -3.6333 C   0  0  0  0  0  0  0  0  0  0  0  0
  -88.5012   29.6083   -2.8189 C   0  0  0  0  0  0  0  0  0  0  0  0
  -89.7985   29.9623   -2.5631 C   0  0  0  0  0  0  0  0  0  0  0  0
  -90.4046   31.1099   -3.0518 C   0  0  0  0  0  0  0  0  0  0  0  0
  -91.6027   36.3145   -6.5140 C   0  0  0  0  0  0  0  0  0  0  0  0
  -91.4494   35.5311   -5.3160 N   0  0  0  0  0  0  0  0  0  0  0  0
  -90.0553   35.4742   -4.9347 C   0  0  0  0  0  0  0  0  0  0  0  0
  -89.8403   34.4170   -3.8465 C   0  0  0  0  0  0  0  0  0  0  0  0
  -90.1594   33.1396   -4.4474 N   0  0  0  0  0  0  0  0  0  0  0  0
  -90.9903   33.1409   -5.6310 C   0  0  0  0  0  0  0  0  0  0  0  0
  -92.0362   34.2156   -5.4420 C   0  0  0  0  0  0  0  0  0  0  0  0
  -91.7238   31.5036   -2.7620 N   0  0  0  0  0  0  0  0  0  0  0  0
  -92.9316   31.0585   -3.2988 C   0  0  0  0  0  0  0  0  0  0  0  0
  -94.2178   31.6587   -2.8004 C   0  0  0  0  0  0  0  0  0  0  0  0
  -93.0204   30.1922   -4.1690 O   0  0  0  0  0  0  0  0  0  0  0  0
  -91.8321   32.2542   -1.9977 H   0  0  0  0  0  0  0  0  0  0  0  0
  -87.8369   28.4654   -2.3160 N   0  0  0  0  0  0  0  0  0  0  0  0
  -87.8673   27.5652   -2.9120 H   0  0  0  0  0  0  0  0  0  0  0  0
  -87.1283   28.3838   -1.0969 C   0  0  0  0  0  0  0  0  0  0  0  0
  -87.5629   27.4338   -0.1547 C   0  0  0  0  0  0  0  0  0  0  0  0
  -86.9283   27.3205    1.0760 C   0  0  0  0  0  0  0  0  0  0  0  0
  -85.9008   28.1468    1.3160 N   0  0  0  0  0  0  0  0  0  0  0  0
  -85.1312   28.2713    2.3679 N   0  0  0  0  0  0  0  0  0  0  0  0
  -84.2092   29.2339    2.2082 C   0  0  0  0  0  0  0  0  0  0  0  0
  -84.3971   29.7801    0.9446 C   0  0  0  0  0  0  0  0  0  0  0  0
  -85.4690   29.0686    0.4185 C   0  0  0  0  0  0  0  0  0  0  0  0
  -86.0875   29.1577   -0.7451 N   0  0  0  0  0  0  0  0  0  0  0  0
  -87.4063   26.3502    2.0045 N   0  0  0  0  0  0  0  0  0  0  0  0
  -86.7120   25.7233    2.4822 H   0  0  0  0  0  0  0  0  0  0  0  0
  -88.7858   26.1466    2.3552 C   0  0  0  0  0  0  0  0  0  0  0  0
  -89.3687   26.9454    3.4870 C   0  0  0  0  0  0  0  0  0  0  0  0
  -89.2267   25.4670    3.5837 C   0  0  0  0  0  0  0  0  0  0  0  0
  -83.6362   30.8432    0.3545 C   0  0  0  0  0  0  0  0  0  0  0  0
  -83.0398   31.7064   -0.1339 N   0  0  0  0  0  0  0  0  0  0  0  0
  7  8  1  0  0  0
  8  9  1  0  0  0
  9 10  1  0  0  0
 10 11  1  0  0  0
 11 12  1  0  0  0
 12 13  1  0  0  0
 11  1  1  0  0  0
  1  2  2  0  0  0
  2  3  1  0  0  0
  3  4  2  0  0  0
  4 19  1  0  0  0
 19 21  1  0  0  0
 21 22  1  0  0  0
 22 23  2  0  0  0
 23 30  1  0  0  0
 30 32  1  0  0  0
 32 33  1  0  0  0
 33 34  1  0  0  0
 23 24  1  0  0  0
 24 25  1  0  0  0
 25 26  2  0  0  0
 26 27  1  0  0  0
 27 35  1  0  0  0
 35 36  3  0  0  0
 27 28  2  0  0  0
 28 29  1  0  0  0
  4  5  1  0  0  0
  5  6  2  0  0  0
  6 14  1  0  0  0
 14 15  1  0  0  0
 15 16  1  0  0  0
 15 17  2  0  0  0
 13  8  1  0  0  0
  6  1  1  0  0  0
 29 21  2  0  0  0
 34 32  1  0  0  0
 28 24  1  0  0  0
 19 20  1  0  0  0
 30 31  1  0  0  0
 14 18  1  0  0  0
M  END
> <minimizedAffinity>
-7.51920

> <CNNscore>
0.0667636395

> <CNNaffinity>
6.5922036171

> <CNN_VS>
0.4401195049

> <CNNaffinity_variance>
0.1276227832

$$$$
[H]c1nn2c(N([H])C3([H])C([H])([H])C3([H])[H])c([H])c(N([H])c3c([H])c([H])c(N4C([H])([H])C([H])([H])N(C([H])([H])[H])C([H])([H])C4([H])[H])c(N([H])C(=O)C([H])([H])[H])c3[H])nc2c1C#N


 36 40  0  0  0  0  0  0  0  0999 V2000
  -90.4446   24.8804   -0.8379 C   0  0  0  0  0  0  0  0  0  0  0  0
  -89.3315   25.0629   -0.0518 C   0  0  0  0  0  0  0  0  0  0  0  0
  -88.3537   25.9774   -0.3492 C   0  0  0  0  0  0  0  0  0  0  0  0
  -88.4719   26.7765   -1.5044 C   0  0  0  0  0  0  0  0  0  0  0  0
  -89.5861   26.5795   -2.2749 C   0  0  0  0  0  0  0  0  0  0  0  0
  -90.5813   25.6582   -1.9855 C   0  0  0  0  0  0  0  0  0  0  0  0
  -94.0867   21.0197    0.4504 C   0  0  0  0  0  0  0  0  0  0  0  0
  -93.1548   22.0512    0.8247 N   0  0  0  0  0  0  0  0  0  0  0  0
  -93.5973   23.3299    0.3135 C   0  0  0  0  0  0  0  0  0  0  0  0
  -92.4843   24.3745    0.4472 C   0  0  0  0  0  0  0  0  0  0  0  0
  -91.4046   23.9350   -0.4105 N   0  0  0  0  0  0  0  0  0  0  0  0
  -91.3680   22.5389   -0.7855 C   0  0  0  0  0  0  0  0  0  0  0  0
  -91.8013   21.7399    0.4222 C   0  0  0  0  0  0  0  0  0  0  0  0
  -91.7094   25.4192   -2.7915 N   0  0  0  0  0  0  0  0  0  0  0  0
  -92.9181   26.1105   -2.8711 C   0  0  0  0  0  0  0  0  0  0  0  0
  -93.9706   25.6331   -3.8340 C   0  0  0  0  0  0  0  0  0  0  0  0
  -93.1892   27.1032   -2.1952 O   0  0  0  0  0  0  0  0  0  0  0  0
  -91.6348   24.5843   -3.4671 H   0  0  0  0  0  0  0  0  0  0  0  0
  -87.4204   27.6817   -1.7797 N   0  0  0  0  0  0  0  0  0  0  0  0
  -86.9549   27.6282   -2.7527 H   0  0  0  0  0  0  0  0  0  0  0  0
  -86.9132   28.6612   -0.8975 C   0  0  0  0  0  0  0  0  0  0  0  0
  -87.3456   29.9874   -1.0806 C   0  0  0  0  0  0  0  0  0  0  0  0
  -86.8639   31.0044   -0.2660 C   0  0  0  0  0  0  0  0  0  0  0  0
  -85.9828   30.6648    0.6851 N   0  0  0  0  0  0  0  0  0  0  0  0
  -85.3660   31.3954    1.5796 N   0  0  0  0  0  0  0  0  0  0  0  0
  -84.5492   30.6634    2.3536 C   0  0  0  0  0  0  0  0  0  0  0  0
  -84.6446   29.3456    1.9241 C   0  0  0  0  0  0  0  0  0  0  0  0
  -85.5553   29.3909    0.8751 C   0  0  0  0  0  0  0  0  0  0  0  0
  -86.0274   28.4406    0.0887 N   0  0  0  0  0  0  0  0  0  0  0  0
  -87.3221   32.3353   -0.4914 N   0  0  0  0  0  0  0  0  0  0  0  0
  -88.2506   32.6240   -0.0941 H   0  0  0  0  0  0  0  0  0  0  0  0
  -86.6118   33.3432   -1.2311 C   0  0  0  0  0  0  0  0  0  0  0  0
  -87.3551   34.1350   -2.2699 C   0  0  0  0  0  0  0  0  0  0  0  0
  -86.2501   33.2140   -2.6516 C   0  0  0  0  0  0  0  0  0  0  0  0
  -83.9398   28.2200    2.4660 C   0  0  0  0  0  0  0  0  0  0  0  0
  -83.3570   27.3256    2.9131 N   0  0  0  0  0  0  0  0  0  0  0  0
  7  8  1  0  0  0
  8  9  1  0  0  0
  9 10  1  0  0  0
 10 11  1  0  0  0
 11 12  1  0  0  0
 12 13  1  0  0  0
 11  1  1  0  0  0
  1  2  2  0  0  0
  2  3  1  0  0  0
  3  4  2  0  0  0
  4 19  1  0  0  0
 19 21  1  0  0  0
 21 22  1  0  0  0
 22 23  2  0  0  0
 23 30  1  0  0  0
 30 32  1  0  0  0
 32 33  1  0  0  0
 33 34  1  0  0  0
 23 24  1  0  0  0
 24 25  1  0  0  0
 25 26  2  0  0  0
 26 27  1  0  0  0
 27 35  1  0  0  0
 35 36  3  0  0  0
 27 28  2  0  0  0
 28 29  1  0  0  0
  4  5  1  0  0  0
  5  6  2  0  0  0
  6 14  1  0  0  0
 14 15  1  0  0  0
 15 16  1  0  0  0
 15 17  2  0  0  0
 13  8  1  0  0  0
  6  1  1  0  0  0
 29 21  2  0  0  0
 34 32  1  0  0  0
 28 24  1  0  0  0
 19 20  1  0  0  0
 30 31  1  0  0  0
 14 18  1  0  0  0
M  END
> <minimizedAffinity>
-7.90453

> <CNNscore>
0.0634767637

> <CNNaffinity>
6.1175651550

> <CNN_VS>
0.3883232474

> <CNNaffinity_variance>
0.1777106822

$$$$
[H]c1nn2c(N([H])C3([H])C([H])([H])C3([H])[H])c([H])c(N([H])c3c([H])c([H])c(N4C([H])([H])C([H])([H])N(C([H])([H])[H])C([H])([H])C4([H])[H])c(N([H])C(=O)C([H])([H])[H])c3[H])nc2c1C#N


 36 40  0  0  0  0  0  0  0  0999 V2000
  -89.8658   28.7504   -1.3336 C   0  0  0  0  0  0  0  0  0  0  0  0
  -91.0220   29.1328   -1.9719 C   0  0  0  0  0  0  0  0  0  0  0  0
  -91.0314   29.9951   -3.0384 C   0  0  0  0  0  0  0  0  0  0  0  0
  -89.8171   30.5254   -3.5195 C   0  0  0  0  0  0  0  0  0  0  0  0
  -88.6772   30.1341   -2.8704 C   0  0  0  0  0  0  0  0  0  0  0  0
  -88.6542   29.2637   -1.7910 C   0  0  0  0  0  0  0  0  0  0  0  0
  -90.4524   24.9039    2.4991 C   0  0  0  0  0  0  0  0  0  0  0  0
  -89.8170   26.0905    1.9885 N   0  0  0  0  0  0  0  0  0  0  0  0
  -90.7823   27.1619    1.8767 C   0  0  0  0  0  0  0  0  0  0  0  0
  -90.1988   28.3267    1.0700 C   0  0  0  0  0  0  0  0  0  0  0  0
  -89.9761   27.8264   -0.2697 N   0  0  0  0  0  0  0  0  0  0  0  0
  -89.8774   26.3945   -0.4461 C   0  0  0  0  0  0  0  0  0  0  0  0
  -89.1221   25.8483    0.7438 C   0  0  0  0  0  0  0  0  0  0  0  0
  -87.4932   28.8870   -1.0914 N   0  0  0  0  0  0  0  0  0  0  0  0
  -86.7722   29.5727   -0.1142 C   0  0  0  0  0  0  0  0  0  0  0  0
  -85.5485   28.9283    0.4776 C   0  0  0  0  0  0  0  0  0  0  0  0
  -87.0729   30.6902    0.3060 O   0  0  0  0  0  0  0  0  0  0  0  0
  -87.0985   27.9136   -1.3275 H   0  0  0  0  0  0  0  0  0  0  0  0
  -89.8872   31.4332   -4.6019 N   0  0  0  0  0  0  0  0  0  0  0  0
  -90.5685   31.2013   -5.4072 H   0  0  0  0  0  0  0  0  0  0  0  0
  -89.1459   32.6280   -4.7354 C   0  0  0  0  0  0  0  0  0  0  0  0
  -88.0306   32.7984   -3.8950 C   0  0  0  0  0  0  0  0  0  0  0  0
  -87.2747   33.9625   -3.9546 C   0  0  0  0  0  0  0  0  0  0  0  0
  -87.6547   34.8976   -4.8363 N   0  0  0  0  0  0  0  0  0  0  0  0
  -87.1482   36.0744   -5.1064 N   0  0  0  0  0  0  0  0  0  0  0  0
  -87.8369   36.7126   -6.0658 C   0  0  0  0  0  0  0  0  0  0  0  0
  -88.8790   35.8782   -6.4506 C   0  0  0  0  0  0  0  0  0  0  0  0
  -88.7276   34.7493   -5.6540 C   0  0  0  0  0  0  0  0  0  0  0  0
  -89.4310   33.6339   -5.5797 N   0  0  0  0  0  0  0  0  0  0  0  0
  -86.1576   34.0973   -3.0793 N   0  0  0  0  0  0  0  0  0  0  0  0
  -85.4957   34.8997   -3.2251 H   0  0  0  0  0  0  0  0  0  0  0  0
  -85.8470   33.2135   -1.9885 C   0  0  0  0  0  0  0  0  0  0  0  0
  -85.9531   33.7356   -0.5832 C   0  0  0  0  0  0  0  0  0  0  0  0
  -84.6396   33.3333   -1.1558 C   0  0  0  0  0  0  0  0  0  0  0  0
  -89.8709   36.1587   -7.4479 C   0  0  0  0  0  0  0  0  0  0  0  0
  -90.6691   36.4067   -8.2485 N   0  0  0  0  0  0  0  0  0  0  0  0
  7  8  1  0  0  0
  8  9  1  0  0  0
  9 10  1  0  0  0
 10 11  1  0  0  0
 11 12  1  0  0  0
 12 13  1  0  0  0
 11  1  1  0  0  0
  1  2  2  0  0  0
  2  3  1  0  0  0
  3  4  2  0  0  0
  4 19  1  0  0  0
 19 21  1  0  0  0
 21 22  1  0  0  0
 22 23  2  0  0  0
 23 30  1  0  0  0
 30 32  1  0  0  0
 32 33  1  0  0  0
 33 34  1  0  0  0
 23 24  1  0  0  0
 24 25  1  0  0  0
 25 26  2  0  0  0
 26 27  1  0  0  0
 27 35  1  0  0  0
 35 36  3  0  0  0
 27 28  2  0  0  0
 28 29  1  0  0  0
  4  5  1  0  0  0
  5  6  2  0  0  0
  6 14  1  0  0  0
 14 15  1  0  0  0
 15 16  1  0  0  0
 15 17  2  0  0  0
 13  8  1  0  0  0
  6  1  1  0  0  0
 29 21  2  0  0  0
 34 32  1  0  0  0
 28 24  1  0  0  0
 19 20  1  0  0  0
 30 31  1  0  0  0
 14 18  1  0  0  0
M  END
> <minimizedAffinity>
-7.53084

> <CNNscore>
0.0380294397

> <CNNaffinity>
5.8413076401

> <CNN_VS>
0.2221416533

> <CNNaffinity_variance>
0.4046404362

$$$$
[H]c1nn2c(N([H])C3([H])C([H])([H])C3([H])[H])c([H])c(N([H])c3c([H])c([H])c(N4C([H])([H])C([H])([H])N(C([H])([H])[H])C([H])([H])C4([H])[H])c(N([H])C(=O)C([H])([H])[H])c3[H])nc2c1C#N


 36 40  0  0  0  0  0  0  0  0999 V2000
  -90.8667   26.8075   -0.1365 C   0  0  0  0  0  0  0  0  0  0  0  0
  -91.1310   27.2687   -1.4045 C   0  0  0  0  0  0  0  0  0  0  0  0
  -91.0915   28.5993   -1.7343 C   0  0  0  0  0  0  0  0  0  0  0  0
  -90.7684   29.5545   -0.7492 C   0  0  0  0  0  0  0  0  0  0  0  0
  -90.5098   29.0762    0.5071 C   0  0  0  0  0  0  0  0  0  0  0  0
  -90.5469   27.7339    0.8534 C   0  0  0  0  0  0  0  0  0  0  0  0
  -90.6258   21.3864    0.4829 C   0  0  0  0  0  0  0  0  0  0  0  0
  -91.0962   22.6840    0.8921 N   0  0  0  0  0  0  0  0  0  0  0  0
  -91.9204   23.2636   -0.1457 C   0  0  0  0  0  0  0  0  0  0  0  0
  -92.1839   24.7450    0.1443 C   0  0  0  0  0  0  0  0  0  0  0  0
  -90.9004   25.4105    0.0761 N   0  0  0  0  0  0  0  0  0  0  0  0
  -89.7127   24.6004    0.2315 C   0  0  0  0  0  0  0  0  0  0  0  0
  -90.0154   23.5603    1.2856 C   0  0  0  0  0  0  0  0  0  0  0  0
  -90.3229   27.2355    2.1498 N   0  0  0  0  0  0  0  0  0  0  0  0
  -90.7687   27.7100    3.3832 C   0  0  0  0  0  0  0  0  0  0  0  0
  -90.3755   26.9737    4.6346 C   0  0  0  0  0  0  0  0  0  0  0  0
  -91.4749   28.7088    3.5220 O   0  0  0  0  0  0  0  0  0  0  0  0
  -89.7284   26.3400    2.2117 H   0  0  0  0  0  0  0  0  0  0  0  0
  -90.7717   30.9149   -1.1362 N   0  0  0  0  0  0  0  0  0  0  0  0
  -91.7262   31.4168   -1.1959 H   0  0  0  0  0  0  0  0  0  0  0  0
  -89.6363   31.6920   -1.4557 C   0  0  0  0  0  0  0  0  0  0  0  0
  -88.4314   31.3832   -0.7985 C   0  0  0  0  0  0  0  0  0  0  0  0
  -87.2837   32.1264   -1.0451 C   0  0  0  0  0  0  0  0  0  0  0  0
  -87.3808   33.1337   -1.9238 N   0  0  0  0  0  0  0  0  0  0  0  0
  -86.4854   33.9920   -2.3431 N   0  0  0  0  0  0  0  0  0  0  0  0
  -86.9939   34.8580   -3.2339 C   0  0  0  0  0  0  0  0  0  0  0  0
  -88.3337   34.5332   -3.4070 C   0  0  0  0  0  0  0  0  0  0  0  0
  -88.5350   33.4449   -2.5662 C   0  0  0  0  0  0  0  0  0  0  0  0
  -89.6131   32.7241   -2.3160 N   0  0  0  0  0  0  0  0  0  0  0  0
  -86.0862   31.7846   -0.3514 N   0  0  0  0  0  0  0  0  0  0  0  0
  -85.2603   32.4297   -0.4214 H   0  0  0  0  0  0  0  0  0  0  0  0
  -85.9016   30.6086    0.4551 C   0  0  0  0  0  0  0  0  0  0  0  0
  -85.2330   30.7487    1.7938 C   0  0  0  0  0  0  0  0  0  0  0  0
  -84.5944   29.9762    0.6936 C   0  0  0  0  0  0  0  0  0  0  0  0
  -89.2675   35.2003   -4.2673 C   0  0  0  0  0  0  0  0  0  0  0  0
  -90.0339   35.7206   -4.9612 N   0  0  0  0  0  0  0  0  0  0  0  0
  7  8  1  0  0  0
  8  9  1  0  0  0
  9 10  1  0  0  0
 10 11  1  0  0  0
 11 12  1  0  0  0
 12 13  1  0  0  0
 11  1  1  0  0  0
  1  2  2  0  0  0
  2  3  1  0  0  0
  3  4  2  0  0  0
  4 19  1  0  0  0
 19 21  1  0  0  0
 21 22  1  0  0  0
 22 23  2  0  0  0
 23 30  1  0  0  0
 30 32  1  0  0  0
 32 33  1  0  0  0
 33 34  1  0  0  0
 23 24  1  0  0  0
 24 25  1  0  0  0
 25 26  2  0  0  0
 26 27  1  0  0  0
 27 35  1  0  0  0
 35 36  3  0  0  0
 27 28  2  0  0  0
 28 29  1  0  0  0
  4  5  1  0  0  0
  5  6  2  0  0  0
  6 14  1  0  0  0
 14 15  1  0  0  0
 15 16  1  0  0  0
 15 17  2  0  0  0
 13  8  1  0  0  0
  6  1  1  0  0  0
 29 21  2  0  0  0
 34 32  1  0  0  0
 28 24  1  0  0  0
 19 20  1  0  0  0
 30 31  1  0  0  0
 14 18  1  0  0  0
M  END
> <minimizedAffinity>
-7.39260

> <CNNscore>
0.0325424410

> <CNNaffinity>
6.0856943130

> <CNN_VS>
0.1980433464

> <CNNaffinity_variance>
0.2761648297

$$$$
[H]Oc1c([H])c(C([H])([H])[H])c2c(oc(=O)c3c(O[H])c([H])c(OC([H])([H])[H])c([H])c32)c1[H]


 22 24  0  0  0  0  0  0  0  0999 V2000
  -88.6782   28.6065    0.5100 C   0  0  0  0  0  0  0  0  0  0  0  0
  -88.3383   27.4890    1.1833 C   0  0  0  0  0  0  0  0  0  0  0  0
  -87.0103   27.3128    1.6447 C   0  0  0  0  0  0  0  0  0  0  0  0
  -86.7448   26.1664    2.3126 O   0  0  0  0  0  0  0  0  0  0  0  0
  -86.0834   28.3003    1.3915 C   0  0  0  0  0  0  0  0  0  0  0  0
  -86.4686   29.4425    0.6919 C   0  0  0  0  0  0  0  0  0  0  0  0
  -87.7395   29.6205    0.2464 C   0  0  0  0  0  0  0  0  0  0  0  0
  -85.5014   30.4271    0.4587 C   0  0  0  0  0  0  0  0  0  0  0  0
  -85.8170   31.5686   -0.2243 C   0  0  0  0  0  0  0  0  0  0  0  0
  -87.1016   31.8957   -0.7938 C   0  0  0  0  0  0  0  0  0  0  0  0
  -84.7516   32.5021   -0.3997 C   0  0  0  0  0  0  0  0  0  0  0  0
  -83.4942   32.2819    0.0766 C   0  0  0  0  0  0  0  0  0  0  0  0
  -82.5266   33.2290   -0.1340 O   0  0  0  0  0  0  0  0  0  0  0  0
  -83.2056   31.1409    0.7499 C   0  0  0  0  0  0  0  0  0  0  0  0
  -84.2042   30.2094    0.9445 C   0  0  0  0  0  0  0  0  0  0  0  0
  -83.9120   29.1163    1.5929 O   0  0  0  0  0  0  0  0  0  0  0  0
  -84.7781   28.1726    1.8315 C   0  0  0  0  0  0  0  0  0  0  0  0
  -84.4320   27.1387    2.4641 O   0  0  0  0  0  0  0  0  0  0  0  0
  -86.0320   25.7367    2.7335 H   0  0  0  0  0  0  0  0  0  0  0  0
  -82.3638   33.9816    0.5263 H   0  0  0  0  0  0  0  0  0  0  0  0
  -91.0648   28.8572    0.9923 C   0  0  0  0  0  0  0  0  0  0  0  0
  -90.0053   28.7475    0.0674 O   0  0  0  0  0  0  0  0  0  0  0  0
 21 22  1  0  0  0
 22  1  1  0  0  0
  1  2  2  0  0  0
  2  3  1  0  0  0
  3  4  1  0  0  0
  3  5  2  0  0  0
  5  6  1  0  0  0
  6  7  2  0  0  0
  6  8  1  0  0  0
  8  9  2  0  0  0
  9 10  1  0  0  0
  9 11  1  0  0  0
 11 12  2  0  0  0
 12 13  1  0  0  0
 12 14  1  0  0  0
 14 15  2  0  0  0
 15 16  1  0  0  0
 16 17  1  0  0  0
 17 18  2  0  0  0
  7  1  1  0  0  0
 15  8  1  0  0  0
 17  5  1  0  0  0
  4 19  1  0  0  0
 13 20  1  0  0  0
M  END
> <minimizedAffinity>
-9.07700

> <CNNscore>
0.9421506524

> <CNNaffinity>
6.3455524445

> <CNN_VS>
5.9784665108

> <CNNaffinity_variance>
0.4286996722

$$$$
[H]Oc1c([H])c(C([H])([H])[H])c2c(oc(=O)c3c(O[H])c([H])c(OC([H])([H])[H])c([H])c32)c1[H]


 22 24  0  0  0  0  0  0  0  0999 V2000
  -87.1871   31.9174   -0.7736 C   0  0  0  0  0  0  0  0  0  0  0  0
  -86.4143   32.9372   -1.1980 C   0  0  0  0  0  0  0  0  0  0  0  0
  -85.0356   32.9680   -0.8729 C   0  0  0  0  0  0  0  0  0  0  0  0
  -84.3246   34.0228   -1.3342 O   0  0  0  0  0  0  0  0  0  0  0  0
  -84.5083   31.9415   -0.1200 C   0  0  0  0  0  0  0  0  0  0  0  0
  -85.3360   30.9030    0.3028 C   0  0  0  0  0  0  0  0  0  0  0  0
  -86.6586   30.8646   -0.0047 C   0  0  0  0  0  0  0  0  0  0  0  0
  -84.7640   29.8745    1.0605 C   0  0  0  0  0  0  0  0  0  0  0  0
  -85.5244   28.8297    1.5071 C   0  0  0  0  0  0  0  0  0  0  0  0
  -86.9419   28.6561    1.3021 C   0  0  0  0  0  0  0  0  0  0  0  0
  -84.8334   27.8391    2.2676 C   0  0  0  0  0  0  0  0  0  0  0  0
  -83.5007   27.9174    2.5402 C   0  0  0  0  0  0  0  0  0  0  0  0
  -82.9121   26.9240    3.2777 O   0  0  0  0  0  0  0  0  0  0  0  0
  -82.7681   28.9646    2.0871 C   0  0  0  0  0  0  0  0  0  0  0  0
  -83.3932   29.9465    1.3469 C   0  0  0  0  0  0  0  0  0  0  0  0
  -82.6764   30.9481    0.9185 O   0  0  0  0  0  0  0  0  0  0  0  0
  -83.1656   31.9279    0.2126 C   0  0  0  0  0  0  0  0  0  0  0  0
  -82.4189   32.8682   -0.1711 O   0  0  0  0  0  0  0  0  0  0  0  0
  -83.4534   34.3556   -1.3180 H   0  0  0  0  0  0  0  0  0  0  0  0
  -82.5090   26.1021    2.8405 H   0  0  0  0  0  0  0  0  0  0  0  0
  -89.4479   31.0189   -0.5036 C   0  0  0  0  0  0  0  0  0  0  0  0
  -88.5509   31.9196   -1.1154 O   0  0  0  0  0  0  0  0  0  0  0  0
 21 22  1  0  0  0
 22  1  1  0  0  0
  1  2  2  0  0  0
  2  3  1  0  0  0
  3  4  1  0  0  0
  3  5  2  0  0  0
  5  6  1  0  0  0
  6  7  2  0  0  0
  6  8  1  0  0  0
  8  9  2  0  0  0
  9 10  1  0  0  0
  9 11  1  0  0  0
 11 12  2  0  0  0
 12 13  1  0  0  0
 12 14  1  0  0  0
 14 15  2  0  0  0
 15 16  1  0  0  0
 16 17  1  0  0  0
 17 18  2  0  0  0
  7  1  1  0  0  0
 15  8  1  0  0  0
 17  5  1  0  0  0
  4 19  1  0  0  0
 13 20  1  0  0  0
M  END
> <minimizedAffinity>
-9.99620

> <CNNscore>
0.8672739267

> <CNNaffinity>
6.0961160660

> <CNN_VS>
5.2870025635

> <CNNaffinity_variance>
0.0679510385

$$$$
[H]Oc1c([H])c(C([H])([H])[H])c2c(oc(=O)c3c(O[H])c([H])c(OC([H])([H])[H])c([H])c32)c1[H]


 22 24  0  0  0  0  0  0  0  0999 V2000
  -87.1801   27.8289    1.3184 C   0  0  0  0  0  0  0  0  0  0  0  0
  -86.2700   27.0783    1.9708 C   0  0  0  0  0  0  0  0  0  0  0  0
  -84.9434   27.5493    2.1317 C   0  0  0  0  0  0  0  0  0  0  0  0
  -84.0868   26.7407    2.7976 O   0  0  0  0  0  0  0  0  0  0  0  0
  -84.6085   28.7801    1.6108 C   0  0  0  0  0  0  0  0  0  0  0  0
  -85.5741   29.5297    0.9414 C   0  0  0  0  0  0  0  0  0  0  0  0
  -86.8484   29.0868    0.7830 C   0  0  0  0  0  0  0  0  0  0  0  0
  -85.1990   30.7779    0.4311 C   0  0  0  0  0  0  0  0  0  0  0  0
  -86.1002   31.5587   -0.2379 C   0  0  0  0  0  0  0  0  0  0  0  0
  -87.4740   31.2237   -0.5237 C   0  0  0  0  0  0  0  0  0  0  0  0
  -85.6060   32.8115   -0.7108 C   0  0  0  0  0  0  0  0  0  0  0  0
  -84.3194   33.2160   -0.5165 C   0  0  0  0  0  0  0  0  0  0  0  0
  -83.9235   34.4343   -1.0025 O   0  0  0  0  0  0  0  0  0  0  0  0
  -83.4439   32.4228    0.1491 C   0  0  0  0  0  0  0  0  0  0  0  0
  -83.8769   31.2027    0.6254 C   0  0  0  0  0  0  0  0  0  0  0  0
  -83.0237   30.4501    1.2627 O   0  0  0  0  0  0  0  0  0  0  0  0
  -83.3270   29.2816    1.7528 C   0  0  0  0  0  0  0  0  0  0  0  0
  -82.4554   28.6018    2.3587 O   0  0  0  0  0  0  0  0  0  0  0  0
  -83.1964   26.7213    3.0747 H   0  0  0  0  0  0  0  0  0  0  0  0
  -83.9985   35.2802   -0.4476 H   0  0  0  0  0  0  0  0  0  0  0  0
  -88.8625   26.1136    1.7861 C   0  0  0  0  0  0  0  0  0  0  0  0
  -88.4871   27.3299    1.1779 O   0  0  0  0  0  0  0  0  0  0  0  0
 21 22  1  0  0  0
 22  1  1  0  0  0
  1  2  2  0  0  0
  2  3  1  0  0  0
  3  4  1  0  0  0
  3  5  2  0  0  0
  5  6  1  0  0  0
  6  7  2  0  0  0
  6  8  1  0  0  0
  8  9  2  0  0  0
  9 10  1  0  0  0
  9 11  1  0  0  0
 11 12  2  0  0  0
 12 13  1  0  0  0
 12 14  1  0  0  0
 14 15  2  0  0  0
 15 16  1  0  0  0
 16 17  1  0  0  0
 17 18  2  0  0  0
  7  1  1  0  0  0
 15  8  1  0  0  0
 17  5  1  0  0  0
  4 19  1  0  0  0
 13 20  1  0  0  0
M  END
> <minimizedAffinity>
-9.17835

> <CNNscore>
0.8182821274

> <CNNaffinity>
5.8784618378

> <CNN_VS>
4.8102402687

> <CNNaffinity_variance>
0.0808618516

$$$$
[H]Oc1c([H])c(C([H])([H])[H])c2c(oc(=O)c3c(O[H])c([H])c(OC([H])([H])[H])c([H])c32)c1[H]


 22 24  0  0  0  0  0  0  0  0999 V2000
  -84.3725   29.4850    1.4000 C   0  0  0  0  0  0  0  0  0  0  0  0
  -83.2355   30.2091    1.3785 C   0  0  0  0  0  0  0  0  0  0  0  0
  -83.2000   31.4577    0.7098 C   0  0  0  0  0  0  0  0  0  0  0  0
  -82.0241   32.1268    0.7314 O   0  0  0  0  0  0  0  0  0  0  0  0
  -84.3432   31.9100    0.0877 C   0  0  0  0  0  0  0  0  0  0  0  0
  -85.5012   31.1355    0.1288 C   0  0  0  0  0  0  0  0  0  0  0  0
  -85.5449   29.9378    0.7682 C   0  0  0  0  0  0  0  0  0  0  0  0
  -86.6448   31.6300   -0.5089 C   0  0  0  0  0  0  0  0  0  0  0  0
  -87.8105   30.9154   -0.5062 C   0  0  0  0  0  0  0  0  0  0  0  0
  -88.0155   29.6181    0.0906 C   0  0  0  0  0  0  0  0  0  0  0  0
  -88.9109   31.5195   -1.1855 C   0  0  0  0  0  0  0  0  0  0  0  0
  -88.8195   32.7305   -1.8034 C   0  0  0  0  0  0  0  0  0  0  0  0
  -89.9232   33.2416   -2.4340 O   0  0  0  0  0  0  0  0  0  0  0  0
  -87.6516   33.4194   -1.7933 C   0  0  0  0  0  0  0  0  0  0  0  0
  -86.5605   32.8751   -1.1482 C   0  0  0  0  0  0  0  0  0  0  0  0
  -85.4437   33.5484   -1.1475 O   0  0  0  0  0  0  0  0  0  0  0  0
  -84.3547   33.1273   -0.5693 C   0  0  0  0  0  0  0  0  0  0  0  0
  -83.3062   33.8261   -0.6051 O   0  0  0  0  0  0  0  0  0  0  0  0
  -81.6526   32.9232    0.4190 H   0  0  0  0  0  0  0  0  0  0  0  0
  -90.5900   33.8319   -1.9481 H   0  0  0  0  0  0  0  0  0  0  0  0
  -83.1954   27.7645    2.6830 C   0  0  0  0  0  0  0  0  0  0  0  0
  -84.3711   28.2507    2.0735 O   0  0  0  0  0  0  0  0  0  0  0  0
 21 22  1  0  0  0
 22  1  1  0  0  0
  1  2  2  0  0  0
  2  3  1  0  0  0
  3  4  1  0  0  0
  3  5  2  0  0  0
  5  6  1  0  0  0
  6  7  2  0  0  0
  6  8  1  0  0  0
  8  9  2  0  0  0
  9 10  1  0  0  0
  9 11  1  0  0  0
 11 12  2  0  0  0
 12 13  1  0  0  0
 12 14  1  0  0  0
 14 15  2  0  0  0
 15 16  1  0  0  0
 16 17  1  0  0  0
 17 18  2  0  0  0
  7  1  1  0  0  0
 15  8  1  0  0  0
 17  5  1  0  0  0
  4 19  1  0  0  0
 13 20  1  0  0  0
M  END
> <minimizedAffinity>
-9.50261

> <CNNscore>
0.7791790962

> <CNNaffinity>
5.7998514175

> <CNN_VS>
4.5191230774

> <CNNaffinity_variance>
0.0933924317

$$$$
[H]Oc1c([H])c(C([H])([H])[H])c2c(oc(=O)c3c(O[H])c([H])c(OC([H])([H])[H])c([H])c32)c1[H]


 22 24  0  0  0  0  0  0  0  0999 V2000
  -86.5316   32.3875   -0.7540 C   0  0  0  0  0  0  0  0  0  0  0  0
  -87.7757   31.9533   -1.0387 C   0  0  0  0  0  0  0  0  0  0  0  0
  -88.1956   30.6689   -0.6127 C   0  0  0  0  0  0  0  0  0  0  0  0
  -89.4576   30.3028   -0.9354 O   0  0  0  0  0  0  0  0  0  0  0  0
  -87.3114   29.8816    0.0922 C   0  0  0  0  0  0  0  0  0  0  0  0
  -86.0325   30.3615    0.3687 C   0  0  0  0  0  0  0  0  0  0  0  0
  -85.6214   31.5917   -0.0349 C   0  0  0  0  0  0  0  0  0  0  0  0
  -85.1638   29.5364    1.0924 C   0  0  0  0  0  0  0  0  0  0  0  0
  -83.8954   29.9495    1.3923 C   0  0  0  0  0  0  0  0  0  0  0  0
  -83.2925   31.2029    1.0093 C   0  0  0  0  0  0  0  0  0  0  0  0
  -83.1011   29.0259    2.1361 C   0  0  0  0  0  0  0  0  0  0  0  0
  -83.5639   27.8057    2.5279 C   0  0  0  0  0  0  0  0  0  0  0  0
  -82.7372   26.9769    3.2399 O   0  0  0  0  0  0  0  0  0  0  0  0
  -84.8255   27.4183    2.2169 C   0  0  0  0  0  0  0  0  0  0  0  0
  -85.6307   28.2784    1.4995 C   0  0  0  0  0  0  0  0  0  0  0  0
  -86.8414   27.8922    1.2068 O   0  0  0  0  0  0  0  0  0  0  0  0
  -87.6833   28.6247    0.5344 C   0  0  0  0  0  0  0  0  0  0  0  0
  -88.8406   28.1928    0.2832 O   0  0  0  0  0  0  0  0  0  0  0  0
  -90.0380   29.5803   -0.8300 H   0  0  0  0  0  0  0  0  0  0  0  0
  -82.7030   26.9996    4.2535 H   0  0  0  0  0  0  0  0  0  0  0  0
  -86.6595   34.1987   -2.3956 C   0  0  0  0  0  0  0  0  0  0  0  0
  -86.1493   33.6677   -1.1923 O   0  0  0  0  0  0  0  0  0  0  0  0
 21 22  1  0  0  0
 22  1  1  0  0  0
  1  2  2  0  0  0
  2  3  1  0  0  0
  3  4  1  0  0  0
  3  5  2  0  0  0
  5  6  1  0  0  0
  6  7  2  0  0  0
  6  8  1  0  0  0
  8  9  2  0  0  0
  9 10  1  0  0  0
  9 11  1  0  0  0
 11 12  2  0  0  0
 12 13  1  0  0  0
 12 14  1  0  0  0
 14 15  2  0  0  0
 15 16  1  0  0  0
 16 17  1  0  0  0
 17 18  2  0  0  0
  7  1  1  0  0  0
 15  8  1  0  0  0
 17  5  1  0  0  0
  4 19  1  0  0  0
 13 20  1  0  0  0
M  END
> <minimizedAffinity>
-9.54627

> <CNNscore>
0.7675474286

> <CNNaffinity>
5.9657449722

> <CNN_VS>
4.5789923668

> <CNNaffinity_variance>
0.2825127542

$$$$
[H]Oc1c([H])c(C([H])([H])[H])c2c(oc(=O)c3c(O[H])c([H])c(OC([H])([H])[H])c([H])c32)c1[H]


 22 24  0  0  0  0  0  0  0  0999 V2000
  -83.7050   31.3752    0.5388 C   0  0  0  0  0  0  0  0  0  0  0  0
  -82.8459   30.5855    1.2138 C   0  0  0  0  0  0  0  0  0  0  0  0
  -83.2780   29.3354    1.7218 C   0  0  0  0  0  0  0  0  0  0  0  0
  -82.3593   28.5985    2.3880 O   0  0  0  0  0  0  0  0  0  0  0  0
  -84.5840   28.9496    1.5121 C   0  0  0  0  0  0  0  0  0  0  0  0
  -85.4457   29.7908    0.8105 C   0  0  0  0  0  0  0  0  0  0  0  0
  -85.0402   30.9905    0.3192 C   0  0  0  0  0  0  0  0  0  0  0  0
  -86.7634   29.3628    0.6115 C   0  0  0  0  0  0  0  0  0  0  0  0
  -87.6571   30.1445   -0.0663 C   0  0  0  0  0  0  0  0  0  0  0  0
  -87.4013   31.4531   -0.6172 C   0  0  0  0  0  0  0  0  0  0  0  0
  -88.9705   29.6045   -0.2103 C   0  0  0  0  0  0  0  0  0  0  0  0
  -89.3256   28.3888    0.2922 C   0  0  0  0  0  0  0  0  0  0  0  0
  -90.6080   27.9418    0.1108 O   0  0  0  0  0  0  0  0  0  0  0  0
  -88.4212   27.6324    0.9620 C   0  0  0  0  0  0  0  0  0  0  0  0
  -87.1387   28.1133    1.1254 C   0  0  0  0  0  0  0  0  0  0  0  0
  -86.2798   27.3756    1.7725 O   0  0  0  0  0  0  0  0  0  0  0  0
  -85.0449   27.7334    1.9834 C   0  0  0  0  0  0  0  0  0  0  0  0
  -84.2636   26.9741    2.6176 O   0  0  0  0  0  0  0  0  0  0  0  0
  -82.2883   27.7809    2.8311 H   0  0  0  0  0  0  0  0  0  0  0  0
  -90.8723   27.3929   -0.7003 H   0  0  0  0  0  0  0  0  0  0  0  0
  -84.0445   33.3911   -0.8076 C   0  0  0  0  0  0  0  0  0  0  0  0
  -83.2414   32.6089    0.0488 O   0  0  0  0  0  0  0  0  0  0  0  0
 21 22  1  0  0  0
 22  1  1  0  0  0
  1  2  2  0  0  0
  2  3  1  0  0  0
  3  4  1  0  0  0
  3  5  2  0  0  0
  5  6  1  0  0  0
  6  7  2  0  0  0
  6  8  1  0  0  0
  8  9  2  0  0  0
  9 10  1  0  0  0
  9 11  1  0  0  0
 11 12  2  0  0  0
 12 13  1  0  0  0
 12 14  1  0  0  0
 14 15  2  0  0  0
 15 16  1  0  0  0
 16 17  1  0  0  0
 17 18  2  0  0  0
  7  1  1  0  0  0
 15  8  1  0  0  0
 17  5  1  0  0  0
  4 19  1  0  0  0
 13 20  1  0  0  0
M  END
> <minimizedAffinity>
-9.01615

> <CNNscore>
0.7627395391

> <CNNaffinity>
5.9455962181

> <CNN_VS>
4.5349411964

> <CNNaffinity_variance>
0.2394053191

$$$$
[H]Oc1c([H])c(C([H])([H])[H])c2c(oc(=O)c3c(O[H])c([H])c(OC([H])([H])[H])c([H])c32)c1[H]


 22 24  0  0  0  0  0  0  0  0999 V2000
  -84.5473   31.1860    0.3016 C   0  0  0  0  0  0  0  0  0  0  0  0
  -83.4342   30.7422    0.9192 C   0  0  0  0  0  0  0  0  0  0  0  0
  -83.4409   29.4916    1.5851 C   0  0  0  0  0  0  0  0  0  0  0  0
  -82.2868   29.1131    2.1814 O   0  0  0  0  0  0  0  0  0  0  0  0
  -84.6003   28.7471    1.5870 C   0  0  0  0  0  0  0  0  0  0  0  0
  -85.7332   29.2363    0.9393 C   0  0  0  0  0  0  0  0  0  0  0  0
  -85.7359   30.4336    0.2976 C   0  0  0  0  0  0  0  0  0  0  0  0
  -86.8907   28.4496    0.9569 C   0  0  0  0  0  0  0  0  0  0  0  0
  -88.0349   28.8763    0.3419 C   0  0  0  0  0  0  0  0  0  0  0  0
  -88.2172   30.1304   -0.3475 C   0  0  0  0  0  0  0  0  0  0  0  0
  -89.1509   27.9902    0.4229 C   0  0  0  0  0  0  0  0  0  0  0  0
  -89.0945   26.7925    1.0700 C   0  0  0  0  0  0  0  0  0  0  0  0
  -90.2112   25.9992    1.1020 O   0  0  0  0  0  0  0  0  0  0  0  0
  -87.9482   26.3921    1.6735 C   0  0  0  0  0  0  0  0  0  0  0  0
  -86.8428   27.2156    1.6210 C   0  0  0  0  0  0  0  0  0  0  0  0
  -85.7475   26.8180    2.2066 O   0  0  0  0  0  0  0  0  0  0  0  0
  -84.6479   27.5168    2.2178 C   0  0  0  0  0  0  0  0  0  0  0  0
  -83.6220   27.0763    2.8029 O   0  0  0  0  0  0  0  0  0  0  0  0
  -81.9422   28.4033    2.6788 H   0  0  0  0  0  0  0  0  0  0  0  0
  -90.3950   25.3071    0.3834 H   0  0  0  0  0  0  0  0  0  0  0  0
  -85.6643   33.2261   -0.4614 C   0  0  0  0  0  0  0  0  0  0  0  0
  -84.5040   32.4315   -0.3494 O   0  0  0  0  0  0  0  0  0  0  0  0
 21 22  1  0  0  0
 22  1  1  0  0  0
  1  2  2  0  0  0
  2  3  1  0  0  0
  3  4  1  0  0  0
  3  5  2  0  0  0
  5  6  1  0  0  0
  6  7  2  0  0  0
  6  8  1  0  0  0
  8  9  2  0  0  0
  9 10  1  0  0  0
  9 11  1  0  0  0
 11 12  2  0  0  0
 12 13  1  0  0  0
 12 14  1  0  0  0
 14 15  2  0  0  0
 15 16  1  0  0  0
 16 17  1  0  0  0
 17 18  2  0  0  0
  7  1  1  0  0  0
 15  8  1  0  0  0
 17  5  1  0  0  0
  4 19  1  0  0  0
 13 20  1  0  0  0
M  END
> <minimizedAffinity>
-8.89250

> <CNNscore>
0.7117990255

> <CNNaffinity>
5.8307237625

> <CNN_VS>
4.1503033638

> <CNNaffinity_variance>
0.1340445578

$$$$
[H]Oc1c([H])c(C([H])([H])[H])c2c(oc(=O)c3c(O[H])c([H])c(OC([H])([H])[H])c([H])c32)c1[H]


 22 24  0  0  0  0  0  0  0  0999 V2000
  -86.2814   33.0974   -1.2293 C   0  0  0  0  0  0  0  0  0  0  0  0
  -85.0225   33.5458   -1.0519 C   0  0  0  0  0  0  0  0  0  0  0  0
  -84.0844   32.7656   -0.3318 C   0  0  0  0  0  0  0  0  0  0  0  0
  -82.8408   33.2812   -0.1953 O   0  0  0  0  0  0  0  0  0  0  0  0
  -84.4848   31.5499    0.1782 C   0  0  0  0  0  0  0  0  0  0  0  0
  -85.7942   31.1170   -0.0231 C   0  0  0  0  0  0  0  0  0  0  0  0
  -86.7002   31.8577   -0.7128 C   0  0  0  0  0  0  0  0  0  0  0  0
  -86.1632   29.8740    0.5042 C   0  0  0  0  0  0  0  0  0  0  0  0
  -87.4338   29.3959    0.3426 C   0  0  0  0  0  0  0  0  0  0  0  0
  -88.5207   30.0683   -0.3268 C   0  0  0  0  0  0  0  0  0  0  0  0
  -87.6944   28.1171    0.9205 C   0  0  0  0  0  0  0  0  0  0  0  0
  -86.7468   27.4071    1.5947 C   0  0  0  0  0  0  0  0  0  0  0  0
  -87.0777   26.1857    2.1200 O   0  0  0  0  0  0  0  0  0  0  0  0
  -85.4937   27.9035    1.7427 C   0  0  0  0  0  0  0  0  0  0  0  0
  -85.1951   29.1361    1.2002 C   0  0  0  0  0  0  0  0  0  0  0  0
  -83.9862   29.6013    1.3511 O   0  0  0  0  0  0  0  0  0  0  0  0
  -83.5986   30.7526    0.8800 C   0  0  0  0  0  0  0  0  0  0  0  0
  -82.4147   31.1462    1.0608 O   0  0  0  0  0  0  0  0  0  0  0  0
  -82.0191   33.0650    0.1893 H   0  0  0  0  0  0  0  0  0  0  0  0
  -86.9685   25.3287    1.5883 H   0  0  0  0  0  0  0  0  0  0  0  0
  -88.5091   33.4653   -2.1746 C   0  0  0  0  0  0  0  0  0  0  0  0
  -87.1854   33.8982   -1.9494 O   0  0  0  0  0  0  0  0  0  0  0  0
 21 22  1  0  0  0
 22  1  1  0  0  0
  1  2  2  0  0  0
  2  3  1  0  0  0
  3  4  1  0  0  0
  3  5  2  0  0  0
  5  6  1  0  0  0
  6  7  2  0  0  0
  6  8  1  0  0  0
  8  9  2  0  0  0
  9 10  1  0  0  0
  9 11  1  0  0  0
 11 12  2  0  0  0
 12 13  1  0  0  0
 12 14  1  0  0  0
 14 15  2  0  0  0
 15 16  1  0  0  0
 16 17  1  0  0  0
 17 18  2  0  0  0
  7  1  1  0  0  0
 15  8  1  0  0  0
 17  5  1  0  0  0
  4 19  1  0  0  0
 13 20  1  0  0  0
M  END
> <minimizedAffinity>
-8.85219

> <CNNscore>
0.6750183702

> <CNNaffinity>
5.6433715820

> <CNN_VS>
3.8093795776

> <CNNaffinity_variance>
0.1193639860

$$$$
[H]Oc1c([H])c(C([H])([H])[H])c2c(oc(=O)c3c(O[H])c([H])c(OC([H])([H])[H])c([H])c32)c1[H]


 22 24  0  0  0  0  0  0  0  0999 V2000
  -83.9880   30.1464    1.3213 C   0  0  0  0  0  0  0  0  0  0  0  0
  -84.0719   28.9052    1.8407 C   0  0  0  0  0  0  0  0  0  0  0  0
  -85.2718   28.1621    1.7173 C   0  0  0  0  0  0  0  0  0  0  0  0
  -85.2803   26.9241    2.2635 O   0  0  0  0  0  0  0  0  0  0  0  0
  -86.3407   28.7320    1.0607 C   0  0  0  0  0  0  0  0  0  0  0  0
  -86.2199   30.0177    0.5364 C   0  0  0  0  0  0  0  0  0  0  0  0
  -85.0733   30.7372    0.6491 C   0  0  0  0  0  0  0  0  0  0  0  0
  -87.3244   30.5616   -0.1294 C   0  0  0  0  0  0  0  0  0  0  0  0
  -87.2689   31.8193   -0.6629 C   0  0  0  0  0  0  0  0  0  0  0  0
  -86.1478   32.7251   -0.5996 C   0  0  0  0  0  0  0  0  0  0  0  0
  -88.4536   32.2679   -1.3205 C   0  0  0  0  0  0  0  0  0  0  0  0
  -89.5767   31.5025   -1.4168 C   0  0  0  0  0  0  0  0  0  0  0  0
  -90.6732   32.0072   -2.0652 O   0  0  0  0  0  0  0  0  0  0  0  0
  -89.6076   30.2585   -0.8782 C   0  0  0  0  0  0  0  0  0  0  0  0
  -88.4853   29.7819   -0.2332 C   0  0  0  0  0  0  0  0  0  0  0  0
  -88.5296   28.5842    0.2808 O   0  0  0  0  0  0  0  0  0  0  0  0
  -87.5280   28.0382    0.9102 C   0  0  0  0  0  0  0  0  0  0  0  0
  -87.6349   26.8755    1.3852 O   0  0  0  0  0  0  0  0  0  0  0  0
  -85.8548   26.1970    2.3695 H   0  0  0  0  0  0  0  0  0  0  0  0
  -90.8122   31.8746   -3.0613 H   0  0  0  0  0  0  0  0  0  0  0  0
  -82.4086   31.8364    0.5207 C   0  0  0  0  0  0  0  0  0  0  0  0
  -82.7814   30.8544    1.4624 O   0  0  0  0  0  0  0  0  0  0  0  0
 21 22  1  0  0  0
 22  1  1  0  0  0
  1  2  2  0  0  0
  2  3  1  0  0  0
  3  4  1  0  0  0
  3  5  2  0  0  0
  5  6  1  0  0  0
  6  7  2  0  0  0
  6  8  1  0  0  0
  8  9  2  0  0  0
  9 10  1  0  0  0
  9 11  1  0  0  0
 11 12  2  0  0  0
 12 13  1  0  0  0
 12 14  1  0  0  0
 14 15  2  0  0  0
 15 16  1  0  0  0
 16 17  1  0  0  0
 17 18  2  0  0  0
  7  1  1  0  0  0
 15  8  1  0  0  0
 17  5  1  0  0  0
  4 19  1  0  0  0
 13 20  1  0  0  0
M  END
> <minimizedAffinity>
-8.54343

> <CNNscore>
0.6191551685

> <CNNaffinity>
5.7108898163

> <CNN_VS>
3.5359270573

> <CNNaffinity_variance>
0.1304060072

$$$$
[H]c1c([H])c([H])c(/C(=C2/C(=O)N([H])c3c([H])c(C(=O)OC([H])([H])[H])c([H])c([H])c32)N([H])c2c([H])c([H])c(N(C(=O)C([H])([H])[H])C([H])([H])[H])c([H])c2[H])c([H])c1[H]


 35 38  0  0  0  0  0  0  0  0999 V2000
  -85.1934   28.8632    1.4710 C   0  0  0  0  0  0  0  0  0  0  0  0
  -86.4499   28.9805    0.9106 C   0  0  0  0  0  0  0  0  0  0  0  0
  -86.8228   30.0651    0.1569 C   0  0  0  0  0  0  0  0  0  0  0  0
  -85.9008   31.0533   -0.0371 C   0  0  0  0  0  0  0  0  0  0  0  0
  -85.9438   32.3369   -0.7500 C   0  0  0  0  0  0  0  0  0  0  0  0
  -86.8912   32.8246   -1.5151 C   0  0  0  0  0  0  0  0  0  0  0  0
  -84.6569   33.0128   -0.5958 C   0  0  0  0  0  0  0  0  0  0  0  0
  -84.3720   34.1252   -1.0768 O   0  0  0  0  0  0  0  0  0  0  0  0
  -83.8688   32.1337    0.1918 N   0  0  0  0  0  0  0  0  0  0  0  0
  -84.6156   30.9696    0.5193 C   0  0  0  0  0  0  0  0  0  0  0  0
  -84.2759   29.8649    1.2724 C   0  0  0  0  0  0  0  0  0  0  0  0
  -82.8774   32.3739    0.4563 H   0  0  0  0  0  0  0  0  0  0  0  0
  -88.0398   32.0554   -1.9149 C   0  0  0  0  0  0  0  0  0  0  0  0
  -89.2562   32.1989   -1.2973 C   0  0  0  0  0  0  0  0  0  0  0  0
  -90.3558   31.4527   -1.6396 C   0  0  0  0  0  0  0  0  0  0  0  0
  -90.2126   30.5251   -2.6492 C   0  0  0  0  0  0  0  0  0  0  0  0
  -89.0203   30.3412   -3.3000 C   0  0  0  0  0  0  0  0  0  0  0  0
  -87.9234   31.1218   -2.9213 C   0  0  0  0  0  0  0  0  0  0  0  0
  -84.8479   27.6953    2.2564 C   0  0  0  0  0  0  0  0  0  0  0  0
  -85.4781   26.6092    2.1880 O   0  0  0  0  0  0  0  0  0  0  0  0
  -82.4790   27.3747    2.7343 C   0  0  0  0  0  0  0  0  0  0  0  0
  -83.7739   27.7680    3.1266 O   0  0  0  0  0  0  0  0  0  0  0  0
  -86.7710   34.0964   -2.1142 N   0  0  0  0  0  0  0  0  0  0  0  0
  -86.0558   34.6661   -1.6114 H   0  0  0  0  0  0  0  0  0  0  0  0
  -87.3145   34.7779   -3.1432 C   0  0  0  0  0  0  0  0  0  0  0  0
  -87.5621   34.1693   -4.3504 C   0  0  0  0  0  0  0  0  0  0  0  0
  -88.1105   34.8358   -5.4068 C   0  0  0  0  0  0  0  0  0  0  0  0
  -88.4324   36.1682   -5.2729 C   0  0  0  0  0  0  0  0  0  0  0  0
  -88.2049   36.8267   -4.0843 C   0  0  0  0  0  0  0  0  0  0  0  0
  -87.6502   36.1015   -3.0554 C   0  0  0  0  0  0  0  0  0  0  0  0
  -89.0010   36.8422   -6.3959 N   0  0  0  0  0  0  0  0  0  0  0  0
  -90.4111   37.0651   -6.5686 C   0  0  0  0  0  0  0  0  0  0  0  0
  -88.0824   37.3106   -7.3895 C   0  0  0  0  0  0  0  0  0  0  0  0
  -88.5436   38.0503   -8.6130 C   0  0  0  0  0  0  0  0  0  0  0  0
  -86.8312   37.1325   -7.3016 O   0  0  0  0  0  0  0  0  0  0  0  0
 21 22  1  0  0  0
 22 19  1  0  0  0
 19 20  2  0  0  0
 19  1  1  0  0  0
  1  2  2  0  0  0
  2  3  1  0  0  0
  3  4  2  0  0  0
  4  5  1  0  0  0
  5  6  2  0  0  0
  6 23  1  0  0  0
 23 25  1  0  0  0
 25 26  2  0  0  0
 26 27  1  0  0  0
 27 28  2  0  0  0
 28 29  1  0  0  0
 29 30  2  0  0  0
 28 31  1  0  0  0
 31 32  1  0  0  0
 31 33  1  0  0  0
 33 34  1  0  0  0
 33 35  2  0  0  0
  6 13  1  0  0  0
 13 14  2  0  0  0
 14 15  1  0  0  0
 15 16  2  0  0  0
 16 17  1  0  0  0
 17 18  2  0  0  0
  5  7  1  0  0  0
  7  8  2  0  0  0
  7  9  1  0  0  0
  9 10  1  0  0  0
 10 11  2  0  0  0
 11  1  1  0  0  0
 10  4  1  0  0  0
 30 25  1  0  0  0
 18 13  1  0  0  0
 23 24  1  0  0  0
  9 12  1  0  0  0
M  END
> <minimizedAffinity>
-8.99314

> <CNNscore>
0.8603249192

> <CNNaffinity>
6.9711341858

> <CNN_VS>
5.9974403381

> <CNNaffinity_variance>
0.0677587539

$$$$
[H]c1c([H])c([H])c(/C(=C2/C(=O)N([H])c3c([H])c(C(=O)OC([H])([H])[H])c([H])c([H])c32)N([H])c2c([H])c([H])c(N(C(=O)C([H])([H])[H])C([H])([H])[H])c([H])c2[H])c([H])c1[H]


 35 38  0  0  0  0  0  0  0  0999 V2000
  -86.3625   28.4966    0.8978 C   0  0  0  0  0  0  0  0  0  0  0  0
  -87.4516   28.7009    0.0738 C   0  0  0  0  0  0  0  0  0  0  0  0
  -87.6572   29.8801   -0.5977 C   0  0  0  0  0  0  0  0  0  0  0  0
  -86.7368   30.8753   -0.4339 C   0  0  0  0  0  0  0  0  0  0  0  0
  -86.6361   32.2425   -0.9612 C   0  0  0  0  0  0  0  0  0  0  0  0
  -87.3841   32.8379   -1.8596 C   0  0  0  0  0  0  0  0  0  0  0  0
  -85.4377   32.8780   -0.4165 C   0  0  0  0  0  0  0  0  0  0  0  0
  -85.0702   34.0413   -0.6648 O   0  0  0  0  0  0  0  0  0  0  0  0
  -84.8413   31.8936    0.4139 N   0  0  0  0  0  0  0  0  0  0  0  0
  -85.6197   30.7044    0.3974 C   0  0  0  0  0  0  0  0  0  0  0  0
  -85.4457   29.5058    1.0577 C   0  0  0  0  0  0  0  0  0  0  0  0
  -83.9469   32.0857    0.9369 H   0  0  0  0  0  0  0  0  0  0  0  0
  -88.3878   32.1411   -2.6198 C   0  0  0  0  0  0  0  0  0  0  0  0
  -88.0708   31.4110   -3.7369 C   0  0  0  0  0  0  0  0  0  0  0  0
  -89.0150   30.7662   -4.4958 C   0  0  0  0  0  0  0  0  0  0  0  0
  -90.3324   30.8678   -4.1028 C   0  0  0  0  0  0  0  0  0  0  0  0
  -90.7045   31.5839   -2.9948 C   0  0  0  0  0  0  0  0  0  0  0  0
  -89.7117   32.2264   -2.2483 C   0  0  0  0  0  0  0  0  0  0  0  0
  -86.1893   27.2311    1.5823 C   0  0  0  0  0  0  0  0  0  0  0  0
  -85.1437   26.9266    2.2111 O   0  0  0  0  0  0  0  0  0  0  0  0
  -88.2148   26.2753    2.5450 C   0  0  0  0  0  0  0  0  0  0  0  0
  -87.2185   26.3061    1.5491 O   0  0  0  0  0  0  0  0  0  0  0  0
  -87.1518   34.1765   -2.2398 N   0  0  0  0  0  0  0  0  0  0  0  0
  -86.5758   34.6622   -1.5177 H   0  0  0  0  0  0  0  0  0  0  0  0
  -87.4613   34.9987   -3.2631 C   0  0  0  0  0  0  0  0  0  0  0  0
  -87.7131   36.3337   -3.0543 C   0  0  0  0  0  0  0  0  0  0  0  0
  -88.0285   37.1863   -4.0715 C   0  0  0  0  0  0  0  0  0  0  0  0
  -88.1011   36.7052   -5.3599 C   0  0  0  0  0  0  0  0  0  0  0  0
  -87.8579   35.3752   -5.6246 C   0  0  0  0  0  0  0  0  0  0  0  0
  -87.5444   34.5649   -4.5582 C   0  0  0  0  0  0  0  0  0  0  0  0
  -88.4374   37.6188   -6.4045 N   0  0  0  0  0  0  0  0  0  0  0  0
  -89.7787   38.0498   -6.6927 C   0  0  0  0  0  0  0  0  0  0  0  0
  -87.3489   38.1151   -7.1914 C   0  0  0  0  0  0  0  0  0  0  0  0
  -87.5589   39.0948   -8.3107 C   0  0  0  0  0  0  0  0  0  0  0  0
  -86.1479   37.7622   -6.9962 O   0  0  0  0  0  0  0  0  0  0  0  0
 21 22  1  0  0  0
 22 19  1  0  0  0
 19 20  2  0  0  0
 19  1  1  0  0  0
  1  2  2  0  0  0
  2  3  1  0  0  0
  3  4  2  0  0  0
  4  5  1  0  0  0
  5  6  2  0  0  0
  6 23  1  0  0  0
 23 25  1  0  0  0
 25 26  2  0  0  0
 26 27  1  0  0  0
 27 28  2  0  0  0
 28 29  1  0  0  0
 29 30  2  0  0  0
 28 31  1  0  0  0
 31 32  1  0  0  0
 31 33  1  0  0  0
 33 34  1  0  0  0
 33 35  2  0  0  0
  6 13  1  0  0  0
 13 14  2  0  0  0
 14 15  1  0  0  0
 15 16  2  0  0  0
 16 17  1  0  0  0
 17 18  2  0  0  0
  5  7  1  0  0  0
  7  8  2  0  0  0
  7  9  1  0  0  0
  9 10  1  0  0  0
 10 11  2  0  0  0
 11  1  1  0  0  0
 10  4  1  0  0  0
 30 25  1  0  0  0
 18 13  1  0  0  0
 23 24  1  0  0  0
  9 12  1  0  0  0
M  END
> <minimizedAffinity>
-8.50762

> <CNNscore>
0.4149905741

> <CNNaffinity>
6.5191717148

> <CNN_VS>
2.7053947449

> <CNNaffinity_variance>
0.1442396641

$$$$
[H]c1c([H])c([H])c(/C(=C2/C(=O)N([H])c3c([H])c(C(=O)OC([H])([H])[H])c([H])c([H])c32)N([H])c2c([H])c([H])c(N(C(=O)C([H])([H])[H])C([H])([H])[H])c([H])c2[H])c([H])c1[H]


 35 38  0  0  0  0  0  0  0  0999 V2000
  -84.5251   30.1422    1.0833 C   0  0  0  0  0  0  0  0  0  0  0  0
  -85.7782   29.5895    0.9072 C   0  0  0  0  0  0  0  0  0  0  0  0
  -86.7944   30.2548    0.2683 C   0  0  0  0  0  0  0  0  0  0  0  0
  -86.5353   31.5083   -0.2068 C   0  0  0  0  0  0  0  0  0  0  0  0
  -87.3581   32.5037   -0.9067 C   0  0  0  0  0  0  0  0  0  0  0  0
  -88.5770   32.3836   -1.3767 C   0  0  0  0  0  0  0  0  0  0  0  0
  -86.5570   33.7027   -1.1468 C   0  0  0  0  0  0  0  0  0  0  0  0
  -86.9649   34.7324   -1.7155 O   0  0  0  0  0  0  0  0  0  0  0  0
  -85.2802   33.4107   -0.6002 N   0  0  0  0  0  0  0  0  0  0  0  0
  -85.2750   32.1028   -0.0438 C   0  0  0  0  0  0  0  0  0  0  0  0
  -84.2774   31.4048    0.6047 C   0  0  0  0  0  0  0  0  0  0  0  0
  -84.4937   34.1110   -0.6391 H   0  0  0  0  0  0  0  0  0  0  0  0
  -89.2764   31.1265   -1.4095 C   0  0  0  0  0  0  0  0  0  0  0  0
  -90.0753   30.7168   -0.3725 C   0  0  0  0  0  0  0  0  0  0  0  0
  -90.7249   29.5080   -0.3677 C   0  0  0  0  0  0  0  0  0  0  0  0
  -90.5555   28.6844   -1.4601 C   0  0  0  0  0  0  0  0  0  0  0  0
  -89.7691   29.0445   -2.5235 C   0  0  0  0  0  0  0  0  0  0  0  0
  -89.1242   30.2850   -2.4896 C   0  0  0  0  0  0  0  0  0  0  0  0
  -83.4846   29.3964    1.7624 C   0  0  0  0  0  0  0  0  0  0  0  0
  -82.2716   29.7270    1.7349 O   0  0  0  0  0  0  0  0  0  0  0  0
  -82.8639   27.3287    2.8949 C   0  0  0  0  0  0  0  0  0  0  0  0
  -83.8320   28.2644    2.4793 O   0  0  0  0  0  0  0  0  0  0  0  0
  -89.2286   33.4602   -2.0145 N   0  0  0  0  0  0  0  0  0  0  0  0
  -89.9564   33.8653   -1.3857 H   0  0  0  0  0  0  0  0  0  0  0  0
  -89.1779   34.1078   -3.1963 C   0  0  0  0  0  0  0  0  0  0  0  0
  -89.4966   35.4413   -3.2933 C   0  0  0  0  0  0  0  0  0  0  0  0
  -89.4537   36.1194   -4.4762 C   0  0  0  0  0  0  0  0  0  0  0  0
  -89.0795   35.4558   -5.6236 C   0  0  0  0  0  0  0  0  0  0  0  0
  -88.7500   34.1187   -5.5823 C   0  0  0  0  0  0  0  0  0  0  0  0
  -88.8117   33.4893   -4.3607 C   0  0  0  0  0  0  0  0  0  0  0  0
  -89.0476   36.1889   -6.8484 N   0  0  0  0  0  0  0  0  0  0  0  0
  -90.1346   36.2278   -7.7891 C   0  0  0  0  0  0  0  0  0  0  0  0
  -87.8458   36.9173   -7.1235 C   0  0  0  0  0  0  0  0  0  0  0  0
  -87.6842   37.7441   -8.3673 C   0  0  0  0  0  0  0  0  0  0  0  0
  -86.8488   36.9110   -6.3419 O   0  0  0  0  0  0  0  0  0  0  0  0
 21 22  1  0  0  0
 22 19  1  0  0  0
 19 20  2  0  0  0
 19  1  1  0  0  0
  1  2  2  0  0  0
  2  3  1  0  0  0
  3  4  2  0  0  0
  4  5  1  0  0  0
  5  6  2  0  0  0
  6 23  1  0  0  0
 23 25  1  0  0  0
 25 26  2  0  0  0
 26 27  1  0  0  0
 27 28  2  0  0  0
 28 29  1  0  0  0
 29 30  2  0  0  0
 28 31  1  0  0  0
 31 32  1  0  0  0
 31 33  1  0  0  0
 33 34  1  0  0  0
 33 35  2  0  0  0
  6 13  1  0  0  0
 13 14  2  0  0  0
 14 15  1  0  0  0
 15 16  2  0  0  0
 16 17  1  0  0  0
 17 18  2  0  0  0
  5  7  1  0  0  0
  7  8  2  0  0  0
  7  9  1  0  0  0
  9 10  1  0  0  0
 10 11  2  0  0  0
 11  1  1  0  0  0
 10  4  1  0  0  0
 30 25  1  0  0  0
 18 13  1  0  0  0
 23 24  1  0  0  0
  9 12  1  0  0  0
M  END
> <minimizedAffinity>
-8.31673

> <CNNscore>
0.2405499369

> <CNNaffinity>
6.1568017006

> <CNN_VS>
1.4810183048

> <CNNaffinity_variance>
0.1685962230

$$$$
[H]c1c([H])c([H])c(/C(=C2/C(=O)N([H])c3c([H])c(C(=O)OC([H])([H])[H])c([H])c([H])c32)N([H])c2c([H])c([H])c(N(C(=O)C([H])([H])[H])C([H])([H])[H])c([H])c2[H])c([H])c1[H]


 35 38  0  0  0  0  0  0  0  0999 V2000
  -84.5637   30.1820    1.0211 C   0  0  0  0  0  0  0  0  0  0  0  0
  -85.8074   29.6124    0.8332 C   0  0  0  0  0  0  0  0  0  0  0  0
  -86.8148   30.2492    0.1525 C   0  0  0  0  0  0  0  0  0  0  0  0
  -86.5562   31.4909   -0.3529 C   0  0  0  0  0  0  0  0  0  0  0  0
  -87.3718   32.4577   -1.0998 C   0  0  0  0  0  0  0  0  0  0  0  0
  -88.5786   32.3123   -1.5933 C   0  0  0  0  0  0  0  0  0  0  0  0
  -86.5764   33.6569   -1.3566 C   0  0  0  0  0  0  0  0  0  0  0  0
  -86.9804   34.6658   -1.9640 O   0  0  0  0  0  0  0  0  0  0  0  0
  -85.3097   33.3932   -0.7732 N   0  0  0  0  0  0  0  0  0  0  0  0
  -85.3053   32.1020   -0.1790 C   0  0  0  0  0  0  0  0  0  0  0  0
  -84.3165   31.4326    0.5117 C   0  0  0  0  0  0  0  0  0  0  0  0
  -84.5288   34.0995   -0.8148 H   0  0  0  0  0  0  0  0  0  0  0  0
  -89.2658   31.0481   -1.6051 C   0  0  0  0  0  0  0  0  0  0  0  0
  -90.2287   30.7403   -0.6781 C   0  0  0  0  0  0  0  0  0  0  0  0
  -90.8730   29.5289   -0.6501 C   0  0  0  0  0  0  0  0  0  0  0  0
  -90.5244   28.5949   -1.6021 C   0  0  0  0  0  0  0  0  0  0  0  0
  -89.5695   28.8503   -2.5518 C   0  0  0  0  0  0  0  0  0  0  0  0
  -88.9362   30.0972   -2.5461 C   0  0  0  0  0  0  0  0  0  0  0  0
  -83.5322   29.4663    1.7448 C   0  0  0  0  0  0  0  0  0  0  0  0
  -82.3255   29.8202    1.7525 O   0  0  0  0  0  0  0  0  0  0  0  0
  -82.9159   27.3975    2.8777 C   0  0  0  0  0  0  0  0  0  0  0  0
  -83.8814   28.3376    2.4661 O   0  0  0  0  0  0  0  0  0  0  0  0
  -89.2253   33.3638   -2.2765 N   0  0  0  0  0  0  0  0  0  0  0  0
  -89.2354   34.2250   -1.6872 H   0  0  0  0  0  0  0  0  0  0  0  0
  -89.8291   33.5686   -3.4649 C   0  0  0  0  0  0  0  0  0  0  0  0
  -90.6234   32.6039   -4.0371 C   0  0  0  0  0  0  0  0  0  0  0  0
  -91.2450   32.7856   -5.2377 C   0  0  0  0  0  0  0  0  0  0  0  0
  -91.0789   33.9747   -5.9126 C   0  0  0  0  0  0  0  0  0  0  0  0
  -90.2931   34.9752   -5.3838 C   0  0  0  0  0  0  0  0  0  0  0  0
  -89.6927   34.7333   -4.1700 C   0  0  0  0  0  0  0  0  0  0  0  0
  -91.7375   34.1362   -7.1692 N   0  0  0  0  0  0  0  0  0  0  0  0
  -91.0620   34.1111   -8.4384 C   0  0  0  0  0  0  0  0  0  0  0  0
  -93.1552   34.3326   -7.1245 C   0  0  0  0  0  0  0  0  0  0  0  0
  -93.9746   34.4990   -8.3726 C   0  0  0  0  0  0  0  0  0  0  0  0
  -93.8048   34.3788   -6.0378 O   0  0  0  0  0  0  0  0  0  0  0  0
 21 22  1  0  0  0
 22 19  1  0  0  0
 19 20  2  0  0  0
 19  1  1  0  0  0
  1  2  2  0  0  0
  2  3  1  0  0  0
  3  4  2  0  0  0
  4  5  1  0  0  0
  5  6  2  0  0  0
  6 23  1  0  0  0
 23 25  1  0  0  0
 25 26  2  0  0  0
 26 27  1  0  0  0
 27 28  2  0  0  0
 28 29  1  0  0  0
 29 30  2  0  0  0
 28 31  1  0  0  0
 31 32  1  0  0  0
 31 33  1  0  0  0
 33 34  1  0  0  0
 33 35  2  0  0  0
  6 13  1  0  0  0
 13 14  2  0  0  0
 14 15  1  0  0  0
 15 16  2  0  0  0
 16 17  1  0  0  0
 17 18  2  0  0  0
  5  7  1  0  0  0
  7  8  2  0  0  0
  7  9  1  0  0  0
  9 10  1  0  0  0
 10 11  2  0  0  0
 11  1  1  0  0  0
 10  4  1  0  0  0
 30 25  1  0  0  0
 18 13  1  0  0  0
 23 24  1  0  0  0
  9 12  1  0  0  0
M  END
> <minimizedAffinity>
-7.96368

> <CNNscore>
0.1493639350

> <CNNaffinity>
5.9060873985

> <CNN_VS>
0.8821564317

> <CNNaffinity_variance>
0.2176064551

$$$$
[H]c1c([H])c([H])c(/C(=C2/C(=O)N([H])c3c([H])c(C(=O)OC([H])([H])[H])c([H])c([H])c32)N([H])c2c([H])c([H])c(N(C(=O)C([H])([H])[H])C([H])([H])[H])c([H])c2[H])c([H])c1[H]


 35 38  0  0  0  0  0  0  0  0999 V2000
  -84.9302   29.2971    1.4543 C   0  0  0  0  0  0  0  0  0  0  0  0
  -85.8169   28.9318    2.4478 C   0  0  0  0  0  0  0  0  0  0  0  0
  -87.0526   28.4008    2.1744 C   0  0  0  0  0  0  0  0  0  0  0  0
  -87.3979   28.2324    0.8642 C   0  0  0  0  0  0  0  0  0  0  0  0
  -88.6093   27.7266    0.2051 C   0  0  0  0  0  0  0  0  0  0  0  0
  -89.6710   27.1736    0.7416 C   0  0  0  0  0  0  0  0  0  0  0  0
  -88.4335   27.8054   -1.2439 C   0  0  0  0  0  0  0  0  0  0  0  0
  -89.2819   27.4585   -2.0865 O   0  0  0  0  0  0  0  0  0  0  0  0
  -87.1340   28.3446   -1.4307 N   0  0  0  0  0  0  0  0  0  0  0  0
  -86.5238   28.5948   -0.1716 C   0  0  0  0  0  0  0  0  0  0  0  0
  -85.2899   29.1268    0.1405 C   0  0  0  0  0  0  0  0  0  0  0  0
  -86.7409   28.5072   -2.3948 H   0  0  0  0  0  0  0  0  0  0  0  0
  -89.7434   26.8220    2.1351 C   0  0  0  0  0  0  0  0  0  0  0  0
  -90.3511   27.6375    3.0555 C   0  0  0  0  0  0  0  0  0  0  0  0
  -90.4027   27.3383    4.3937 C   0  0  0  0  0  0  0  0  0  0  0  0
  -89.8138   26.1642    4.8117 C   0  0  0  0  0  0  0  0  0  0  0  0
  -89.1937   25.3127    3.9345 C   0  0  0  0  0  0  0  0  0  0  0  0
  -89.1628   25.6540    2.5787 C   0  0  0  0  0  0  0  0  0  0  0  0
  -83.6352   29.8507    1.7959 C   0  0  0  0  0  0  0  0  0  0  0  0
  -82.6555   29.1440    2.1456 O   0  0  0  0  0  0  0  0  0  0  0  0
  -82.6854   31.8228    0.7226 C   0  0  0  0  0  0  0  0  0  0  0  0
  -83.4571   31.2221    1.7370 O   0  0  0  0  0  0  0  0  0  0  0  0
  -90.7619   26.7560   -0.0497 N   0  0  0  0  0  0  0  0  0  0  0  0
  -91.2484   27.5834   -0.4593 H   0  0  0  0  0  0  0  0  0  0  0  0
  -91.3489   25.6005   -0.4226 C   0  0  0  0  0  0  0  0  0  0  0  0
  -92.7165   25.4638   -0.4261 C   0  0  0  0  0  0  0  0  0  0  0  0
  -93.3350   24.3063   -0.7983 C   0  0  0  0  0  0  0  0  0  0  0  0
  -92.5732   23.2267   -1.1869 C   0  0  0  0  0  0  0  0  0  0  0  0
  -91.1981   23.3100   -1.2016 C   0  0  0  0  0  0  0  0  0  0  0  0
  -90.6324   24.5032   -0.8161 C   0  0  0  0  0  0  0  0  0  0  0  0
  -93.2465   22.0263   -1.5672 N   0  0  0  0  0  0  0  0  0  0  0  0
  -93.5985   20.9779   -0.6482 C   0  0  0  0  0  0  0  0  0  0  0  0
  -93.5755   21.8929   -2.9545 C   0  0  0  0  0  0  0  0  0  0  0  0
  -94.2988   20.6892   -3.4878 C   0  0  0  0  0  0  0  0  0  0  0  0
  -93.2796   22.7745   -3.8149 O   0  0  0  0  0  0  0  0  0  0  0  0
 21 22  1  0  0  0
 22 19  1  0  0  0
 19 20  2  0  0  0
 19  1  1  0  0  0
  1  2  2  0  0  0
  2  3  1  0  0  0
  3  4  2  0  0  0
  4  5  1  0  0  0
  5  6  2  0  0  0
  6 23  1  0  0  0
 23 25  1  0  0  0
 25 26  2  0  0  0
 26 27  1  0  0  0
 27 28  2  0  0  0
 28 29  1  0  0  0
 29 30  2  0  0  0
 28 31  1  0  0  0
 31 32  1  0  0  0
 31 33  1  0  0  0
 33 34  1  0  0  0
 33 35  2  0  0  0
  6 13  1  0  0  0
 13 14  2  0  0  0
 14 15  1  0  0  0
 15 16  2  0  0  0
 16 17  1  0  0  0
 17 18  2  0  0  0
  5  7  1  0  0  0
  7  8  2  0  0  0
  7  9  1  0  0  0
  9 10  1  0  0  0
 10 11  2  0  0  0
 11  1  1  0  0  0
 10  4  1  0  0  0
 30 25  1  0  0  0
 18 13  1  0  0  0
 23 24  1  0  0  0
  9 12  1  0  0  0
M  END
> <minimizedAffinity>
-8.28143

> <CNNscore>
0.1043638140

> <CNNaffinity>
5.6740169525

> <CNN_VS>
0.5921620727

> <CNNaffinity_variance>
0.3136113882

$$$$
[H]c1c([H])c([H])c(/C(=C2/C(=O)N([H])c3c([H])c(C(=O)OC([H])([H])[H])c([H])c([H])c32)N([H])c2c([H])c([H])c(N(C(=O)C([H])([H])[H])C([H])([H])[H])c([H])c2[H])c([H])c1[H]


 35 38  0  0  0  0  0  0  0  0999 V2000
  -91.1624   23.7633   -1.3819 C   0  0  0  0  0  0  0  0  0  0  0  0
  -92.0554   24.7960   -1.5891 C   0  0  0  0  0  0  0  0  0  0  0  0
  -91.6553   26.1030   -1.7130 C   0  0  0  0  0  0  0  0  0  0  0  0
  -90.3192   26.3709   -1.6285 C   0  0  0  0  0  0  0  0  0  0  0  0
  -89.5416   27.6155   -1.6921 C   0  0  0  0  0  0  0  0  0  0  0  0
  -89.9489   28.8295   -1.9772 C   0  0  0  0  0  0  0  0  0  0  0  0
  -88.1256   27.3047   -1.5047 C   0  0  0  0  0  0  0  0  0  0  0  0
  -87.2048   28.1426   -1.4997 O   0  0  0  0  0  0  0  0  0  0  0  0
  -88.0742   25.8960   -1.3396 N   0  0  0  0  0  0  0  0  0  0  0  0
  -89.3832   25.3476   -1.4157 C   0  0  0  0  0  0  0  0  0  0  0  0
  -89.8217   24.0453   -1.2947 C   0  0  0  0  0  0  0  0  0  0  0  0
  -87.1598   25.3944   -1.1884 H   0  0  0  0  0  0  0  0  0  0  0  0
  -91.2793   29.1120   -2.4474 C   0  0  0  0  0  0  0  0  0  0  0  0
  -91.6051   29.0432   -3.7781 C   0  0  0  0  0  0  0  0  0  0  0  0
  -92.8580   29.3404   -4.2525 C   0  0  0  0  0  0  0  0  0  0  0  0
  -93.8164   29.7220   -3.3381 C   0  0  0  0  0  0  0  0  0  0  0  0
  -93.5448   29.8068   -1.9971 C   0  0  0  0  0  0  0  0  0  0  0  0
  -92.2554   29.4954   -1.5541 C   0  0  0  0  0  0  0  0  0  0  0  0
  -91.6358   22.3990   -1.2609 C   0  0  0  0  0  0  0  0  0  0  0  0
  -91.1916   21.5899   -0.4069 O   0  0  0  0  0  0  0  0  0  0  0  0
  -93.8643   21.4871   -1.6421 C   0  0  0  0  0  0  0  0  0  0  0  0
  -92.6249   21.9552   -2.1217 O   0  0  0  0  0  0  0  0  0  0  0  0
  -89.0579   29.9234   -1.9762 N   0  0  0  0  0  0  0  0  0  0  0  0
  -88.3634   29.8227   -1.2038 H   0  0  0  0  0  0  0  0  0  0  0  0
  -88.8520   31.0524   -2.6844 C   0  0  0  0  0  0  0  0  0  0  0  0
  -89.3462   32.2620   -2.2580 C   0  0  0  0  0  0  0  0  0  0  0  0
  -89.1525   33.4183   -2.9555 C   0  0  0  0  0  0  0  0  0  0  0  0
  -88.4376   33.3870   -4.1323 C   0  0  0  0  0  0  0  0  0  0  0  0
  -87.9203   32.2009   -4.6051 C   0  0  0  0  0  0  0  0  0  0  0  0
  -88.1483   31.0687   -3.8578 C   0  0  0  0  0  0  0  0  0  0  0  0
  -88.2539   34.6111   -4.8441 N   0  0  0  0  0  0  0  0  0  0  0  0
  -87.1975   35.5476   -4.5708 C   0  0  0  0  0  0  0  0  0  0  0  0
  -89.1963   34.8897   -5.8856 C   0  0  0  0  0  0  0  0  0  0  0  0
  -89.1099   36.1331   -6.7242 C   0  0  0  0  0  0  0  0  0  0  0  0
  -90.1565   34.1118   -6.1645 O   0  0  0  0  0  0  0  0  0  0  0  0
 21 22  1  0  0  0
 22 19  1  0  0  0
 19 20  2  0  0  0
 19  1  1  0  0  0
  1  2  2  0  0  0
  2  3  1  0  0  0
  3  4  2  0  0  0
  4  5  1  0  0  0
  5  6  2  0  0  0
  6 23  1  0  0  0
 23 25  1  0  0  0
 25 26  2  0  0  0
 26 27  1  0  0  0
 27 28  2  0  0  0
 28 29  1  0  0  0
 29 30  2  0  0  0
 28 31  1  0  0  0
 31 32  1  0  0  0
 31 33  1  0  0  0
 33 34  1  0  0  0
 33 35  2  0  0  0
  6 13  1  0  0  0
 13 14  2  0  0  0
 14 15  1  0  0  0
 15 16  2  0  0  0
 16 17  1  0  0  0
 17 18  2  0  0  0
  5  7  1  0  0  0
  7  8  2  0  0  0
  7  9  1  0  0  0
  9 10  1  0  0  0
 10 11  2  0  0  0
 11  1  1  0  0  0
 10  4  1  0  0  0
 30 25  1  0  0  0
 18 13  1  0  0  0
 23 24  1  0  0  0
  9 12  1  0  0  0
M  END
> <minimizedAffinity>
-6.98365

> <CNNscore>
0.0748870447

> <CNNaffinity>
5.2549777031

> <CNN_VS>
0.3935297430

> <CNNaffinity_variance>
0.3416480124

$$$$
[H]c1c([H])c([H])c(/C(=C2/C(=O)N([H])c3c([H])c(C(=O)OC([H])([H])[H])c([H])c([H])c32)N([H])c2c([H])c([H])c(N(C(=O)C([H])([H])[H])C([H])([H])[H])c([H])c2[H])c([H])c1[H]


 35 38  0  0  0  0  0  0  0  0999 V2000
  -89.9966   27.3301   -0.1038 C   0  0  0  0  0  0  0  0  0  0  0  0
  -91.1328   27.9952   -0.5201 C   0  0  0  0  0  0  0  0  0  0  0  0
  -91.1192   28.9076   -1.5453 C   0  0  0  0  0  0  0  0  0  0  0  0
  -89.9276   29.1503   -2.1662 C   0  0  0  0  0  0  0  0  0  0  0  0
  -89.5327   30.0494   -3.2586 C   0  0  0  0  0  0  0  0  0  0  0  0
  -90.2893   30.7966   -4.0269 C   0  0  0  0  0  0  0  0  0  0  0  0
  -88.0959   29.9160   -3.4919 C   0  0  0  0  0  0  0  0  0  0  0  0
  -87.4494   30.5474   -4.3484 O   0  0  0  0  0  0  0  0  0  0  0  0
  -87.6564   28.9471   -2.5526 N   0  0  0  0  0  0  0  0  0  0  0  0
  -88.7524   28.4955   -1.7683 C   0  0  0  0  0  0  0  0  0  0  0  0
  -88.8035   27.5852   -0.7330 C   0  0  0  0  0  0  0  0  0  0  0  0
  -86.6464   28.6508   -2.5019 H   0  0  0  0  0  0  0  0  0  0  0  0
  -91.7264   30.7245   -4.0080 C   0  0  0  0  0  0  0  0  0  0  0  0
  -92.4822   31.5687   -3.2349 C   0  0  0  0  0  0  0  0  0  0  0  0
  -93.8512   31.4962   -3.1759 C   0  0  0  0  0  0  0  0  0  0  0  0
  -94.4756   30.5279   -3.9327 C   0  0  0  0  0  0  0  0  0  0  0  0
  -93.7689   29.6590   -4.7230 C   0  0  0  0  0  0  0  0  0  0  0  0
  -92.3748   29.7659   -4.7554 C   0  0  0  0  0  0  0  0  0  0  0  0
  -90.0648   26.3730    0.9822 C   0  0  0  0  0  0  0  0  0  0  0  0
  -90.3155   25.1529    0.8091 O   0  0  0  0  0  0  0  0  0  0  0  0
  -89.2252   25.9904    3.2386 C   0  0  0  0  0  0  0  0  0  0  0  0
  -89.8443   26.8123    2.2761 O   0  0  0  0  0  0  0  0  0  0  0  0
  -89.7337   31.6211   -5.0279 N   0  0  0  0  0  0  0  0  0  0  0  0
  -89.3984   31.0413   -5.8282 H   0  0  0  0  0  0  0  0  0  0  0  0
  -89.5149   32.9346   -5.2410 C   0  0  0  0  0  0  0  0  0  0  0  0
  -88.5515   33.6201   -4.5402 C   0  0  0  0  0  0  0  0  0  0  0  0
  -88.3104   34.9484   -4.7362 C   0  0  0  0  0  0  0  0  0  0  0  0
  -89.0527   35.6407   -5.6672 C   0  0  0  0  0  0  0  0  0  0  0  0
  -90.0310   35.0019   -6.3970 C   0  0  0  0  0  0  0  0  0  0  0  0
  -90.2274   33.6620   -6.1551 C   0  0  0  0  0  0  0  0  0  0  0  0
  -88.7822   37.0310   -5.8487 N   0  0  0  0  0  0  0  0  0  0  0  0
  -89.5374   38.0836   -5.2246 C   0  0  0  0  0  0  0  0  0  0  0  0
  -87.6863   37.3594   -6.7098 C   0  0  0  0  0  0  0  0  0  0  0  0
  -87.2820   38.7817   -6.9749 C   0  0  0  0  0  0  0  0  0  0  0  0
  -86.9927   36.4784   -7.2995 O   0  0  0  0  0  0  0  0  0  0  0  0
 21 22  1  0  0  0
 22 19  1  0  0  0
 19 20  2  0  0  0
 19  1  1  0  0  0
  1  2  2  0  0  0
  2  3  1  0  0  0
  3  4  2  0  0  0
  4  5  1  0  0  0
  5  6  2  0  0  0
  6 23  1  0  0  0
 23 25  1  0  0  0
 25 26  2  0  0  0
 26 27  1  0  0  0
 27 28  2  0  0  0
 28 29  1  0  0  0
 29 30  2  0  0  0
 28 31  1  0  0  0
 31 32  1  0  0  0
 31 33  1  0  0  0
 33 34  1  0  0  0
 33 35  2  0  0  0
  6 13  1  0  0  0
 13 14  2  0  0  0
 14 15  1  0  0  0
 15 16  2  0  0  0
 16 17  1  0  0  0
 17 18  2  0  0  0
  5  7  1  0  0  0
  7  8  2  0  0  0
  7  9  1  0  0  0
  9 10  1  0  0  0
 10 11  2  0  0  0
 11  1  1  0  0  0
 10  4  1  0  0  0
 30 25  1  0  0  0
 18 13  1  0  0  0
 23 24  1  0  0  0
  9 12  1  0  0  0
M  END
> <minimizedAffinity>
-6.61674

> <CNNscore>
0.0728911236

> <CNNaffinity>
5.3250784874

> <CNN_VS>
0.3881509602

> <CNNaffinity_variance>
0.1795627326

$$$$
[H]c1c([H])c([H])c(/C(=C2/C(=O)N([H])c3c([H])c(C(=O)OC([H])([H])[H])c([H])c([H])c32)N([H])c2c([H])c([H])c(N(C(=O)C([H])([H])[H])C([H])([H])[H])c([H])c2[H])c([H])c1[H]


 35 38  0  0  0  0  0  0  0  0999 V2000
  -92.6942   23.7846   -3.1367 C   0  0  0  0  0  0  0  0  0  0  0  0
  -92.8683   25.1523   -3.0618 C   0  0  0  0  0  0  0  0  0  0  0  0
  -92.0441   25.9610   -2.3199 C   0  0  0  0  0  0  0  0  0  0  0  0
  -91.0171   25.3717   -1.6401 C   0  0  0  0  0  0  0  0  0  0  0  0
  -89.9722   25.8977   -0.7517 C   0  0  0  0  0  0  0  0  0  0  0  0
  -89.6806   27.1450   -0.4686 C   0  0  0  0  0  0  0  0  0  0  0  0
  -89.1491   24.7888   -0.2726 C   0  0  0  0  0  0  0  0  0  0  0  0
  -88.1814   24.9002    0.5027 O   0  0  0  0  0  0  0  0  0  0  0  0
  -89.7010   23.6295   -0.8775 N   0  0  0  0  0  0  0  0  0  0  0  0
  -90.8113   23.9848   -1.6905 C   0  0  0  0  0  0  0  0  0  0  0  0
  -91.6604   23.2027   -2.4458 C   0  0  0  0  0  0  0  0  0  0  0  0
  -89.2925   22.6735   -0.7051 H   0  0  0  0  0  0  0  0  0  0  0  0
  -90.2865   28.2582   -1.1500 C   0  0  0  0  0  0  0  0  0  0  0  0
  -91.3870   28.9026   -0.6448 C   0  0  0  0  0  0  0  0  0  0  0  0
  -92.0009   29.9444   -1.2936 C   0  0  0  0  0  0  0  0  0  0  0  0
  -91.4749   30.3463   -2.5028 C   0  0  0  0  0  0  0  0  0  0  0  0
  -90.3767   29.7378   -3.0529 C   0  0  0  0  0  0  0  0  0  0  0  0
  -89.7801   28.6797   -2.3599 C   0  0  0  0  0  0  0  0  0  0  0  0
  -93.5907   22.9750   -3.9373 C   0  0  0  0  0  0  0  0  0  0  0  0
  -94.3661   23.4573   -4.8019 O   0  0  0  0  0  0  0  0  0  0  0  0
  -94.7292   20.9396   -3.2274 C   0  0  0  0  0  0  0  0  0  0  0  0
  -93.6014   21.6036   -3.7496 O   0  0  0  0  0  0  0  0  0  0  0  0
  -88.6427   27.4720    0.4294 N   0  0  0  0  0  0  0  0  0  0  0  0
  -88.7554   26.9405    1.3204 H   0  0  0  0  0  0  0  0  0  0  0  0
  -87.5563   28.2704    0.4619 C   0  0  0  0  0  0  0  0  0  0  0  0
  -86.8090   28.5044   -0.6677 C   0  0  0  0  0  0  0  0  0  0  0  0
  -85.7061   29.3071   -0.6617 C   0  0  0  0  0  0  0  0  0  0  0  0
  -85.3151   29.9113    0.5126 C   0  0  0  0  0  0  0  0  0  0  0  0
  -86.0286   29.7103    1.6738 C   0  0  0  0  0  0  0  0  0  0  0  0
  -87.1315   28.8911    1.6050 C   0  0  0  0  0  0  0  0  0  0  0  0
  -84.1545   30.7427    0.4909 N   0  0  0  0  0  0  0  0  0  0  0  0
  -82.8709   30.3425    1.0009 C   0  0  0  0  0  0  0  0  0  0  0  0
  -84.3153   32.0460   -0.0802 C   0  0  0  0  0  0  0  0  0  0  0  0
  -83.1727   33.0160   -0.1818 C   0  0  0  0  0  0  0  0  0  0  0  0
  -85.4231   32.4619   -0.5326 O   0  0  0  0  0  0  0  0  0  0  0  0
 21 22  1  0  0  0
 22 19  1  0  0  0
 19 20  2  0  0  0
 19  1  1  0  0  0
  1  2  2  0  0  0
  2  3  1  0  0  0
  3  4  2  0  0  0
  4  5  1  0  0  0
  5  6  2  0  0  0
  6 23  1  0  0  0
 23 25  1  0  0  0
 25 26  2  0  0  0
 26 27  1  0  0  0
 27 28  2  0  0  0
 28 29  1  0  0  0
 29 30  2  0  0  0
 28 31  1  0  0  0
 31 32  1  0  0  0
 31 33  1  0  0  0
 33 34  1  0  0  0
 33 35  2  0  0  0
  6 13  1  0  0  0
 13 14  2  0  0  0
 14 15  1  0  0  0
 15 16  2  0  0  0
 16 17  1  0  0  0
 17 18  2  0  0  0
  5  7  1  0  0  0
  7  8  2  0  0  0
  7  9  1  0  0  0
  9 10  1  0  0  0
 10 11  2  0  0  0
 11  1  1  0  0  0
 10  4  1  0  0  0
 30 25  1  0  0  0
 18 13  1  0  0  0
 23 24  1  0  0  0
  9 12  1  0  0  0
M  END
> <minimizedAffinity>
-6.49968

> <CNNscore>
0.0725111738

> <CNNaffinity>
5.5113229752

> <CNN_VS>
0.3996324837

> <CNNaffinity_variance>
0.3236674666

$$$$
[H]c1c([H])c([H])c(/C(=C2/C(=O)N([H])c3c([H])c(C(=O)OC([H])([H])[H])c([H])c([H])c32)N([H])c2c([H])c([H])c(N(C(=O)C([H])([H])[H])C([H])([H])[H])c([H])c2[H])c([H])c1[H]


 35 38  0  0  0  0  0  0  0  0999 V2000
  -84.5649   29.2273    1.3039 C   0  0  0  0  0  0  0  0  0  0  0  0
  -85.2582   29.8414    0.2798 C   0  0  0  0  0  0  0  0  0  0  0  0
  -86.4974   29.4170   -0.1301 C   0  0  0  0  0  0  0  0  0  0  0  0
  -87.0496   28.3473    0.5142 C   0  0  0  0  0  0  0  0  0  0  0  0
  -88.3139   27.6193    0.3437 C   0  0  0  0  0  0  0  0  0  0  0  0
  -89.3314   27.9033   -0.4342 C   0  0  0  0  0  0  0  0  0  0  0  0
  -88.3657   26.5192    1.3049 C   0  0  0  0  0  0  0  0  0  0  0  0
  -89.3047   25.7091    1.4138 O   0  0  0  0  0  0  0  0  0  0  0  0
  -87.1503   26.6058    2.0328 N   0  0  0  0  0  0  0  0  0  0  0  0
  -86.3733   27.6968    1.5572 C   0  0  0  0  0  0  0  0  0  0  0  0
  -85.1285   28.1503    1.9418 C   0  0  0  0  0  0  0  0  0  0  0  0
  -86.9236   25.9253    2.8048 H   0  0  0  0  0  0  0  0  0  0  0  0
  -89.4247   29.1351   -1.1722 C   0  0  0  0  0  0  0  0  0  0  0  0
  -89.0534   29.2178   -2.4901 C   0  0  0  0  0  0  0  0  0  0  0  0
  -89.1025   30.3888   -3.2038 C   0  0  0  0  0  0  0  0  0  0  0  0
  -89.5469   31.5192   -2.5518 C   0  0  0  0  0  0  0  0  0  0  0  0
  -89.9307   31.4927   -1.2362 C   0  0  0  0  0  0  0  0  0  0  0  0
  -89.8658   30.2792   -0.5441 C   0  0  0  0  0  0  0  0  0  0  0  0
  -83.2600   29.7165    1.7012 C   0  0  0  0  0  0  0  0  0  0  0  0
  -82.3269   28.9611    2.0757 O   0  0  0  0  0  0  0  0  0  0  0  0
  -82.3608   31.6867    0.5819 C   0  0  0  0  0  0  0  0  0  0  0  0
  -83.0182   31.0790    1.6700 O   0  0  0  0  0  0  0  0  0  0  0  0
  -90.4724   27.0749   -0.4845 N   0  0  0  0  0  0  0  0  0  0  0  0
  -90.7397   26.7697    0.4770 H   0  0  0  0  0  0  0  0  0  0  0  0
  -91.3074   26.5701   -1.4154 C   0  0  0  0  0  0  0  0  0  0  0  0
  -91.0339   25.3817   -2.0496 C   0  0  0  0  0  0  0  0  0  0  0  0
  -91.8614   24.8496   -2.9946 C   0  0  0  0  0  0  0  0  0  0  0  0
  -93.0166   25.5173   -3.3360 C   0  0  0  0  0  0  0  0  0  0  0  0
  -93.3385   26.7125   -2.7309 C   0  0  0  0  0  0  0  0  0  0  0  0
  -92.4652   27.1983   -1.7856 C   0  0  0  0  0  0  0  0  0  0  0  0
  -93.8620   24.9398   -4.3312 N   0  0  0  0  0  0  0  0  0  0  0  0
  -94.7310   23.8188   -4.0940 C   0  0  0  0  0  0  0  0  0  0  0  0
  -93.8160   25.5383   -5.6312 C   0  0  0  0  0  0  0  0  0  0  0  0
  -94.6658   25.0413   -6.7659 C   0  0  0  0  0  0  0  0  0  0  0  0
  -93.0611   26.5178   -5.9063 O   0  0  0  0  0  0  0  0  0  0  0  0
 21 22  1  0  0  0
 22 19  1  0  0  0
 19 20  2  0  0  0
 19  1  1  0  0  0
  1  2  2  0  0  0
  2  3  1  0  0  0
  3  4  2  0  0  0
  4  5  1  0  0  0
  5  6  2  0  0  0
  6 23  1  0  0  0
 23 25  1  0  0  0
 25 26  2  0  0  0
 26 27  1  0  0  0
 27 28  2  0  0  0
 28 29  1  0  0  0
 29 30  2  0  0  0
 28 31  1  0  0  0
 31 32  1  0  0  0
 31 33  1  0  0  0
 33 34  1  0  0  0
 33 35  2  0  0  0
  6 13  1  0  0  0
 13 14  2  0  0  0
 14 15  1  0  0  0
 15 16  2  0  0  0
 16 17  1  0  0  0
 17 18  2  0  0  0
  5  7  1  0  0  0
  7  8  2  0  0  0
  7  9  1  0  0  0
  9 10  1  0  0  0
 10 11  2  0  0  0
 11  1  1  0  0  0
 10  4  1  0  0  0
 30 25  1  0  0  0
 18 13  1  0  0  0
 23 24  1  0  0  0
  9 12  1  0  0  0
M  END
> <minimizedAffinity>
-8.43364

> <CNNscore>
0.0719929039

> <CNNaffinity>
5.5740761757

> <CNN_VS>
0.4012939334

> <CNNaffinity_variance>
0.3818944097

$$$$
[H]c1nc(N([H])c2c([H])c(OC([H])([H])[H])c([H])c(C(F)(F)F)c2[H])nc(N([H])c2nc3c(c([H])c2[H])OC(C([H])([H])[H])(C([H])([H])[H])C(=O)N3[H])c1F


 37 40  0  0  0  0  0  0  0  0999 V2000
  -85.7738   29.0022    1.2489 C   0  0  0  0  0  0  0  0  0  0  0  0
  -84.4617   28.8584    1.7160 N   0  0  0  0  0  0  0  0  0  0  0  0
  -83.5586   29.8103    1.6027 C   0  0  0  0  0  0  0  0  0  0  0  0
  -83.8658   31.0015    1.0149 C   0  0  0  0  0  0  0  0  0  0  0  0
  -82.9373   31.9996    0.8997 F   0  0  0  0  0  0  0  0  0  0  0  0
  -85.1847   31.2067    0.5219 C   0  0  0  0  0  0  0  0  0  0  0  0
  -86.0330   30.1823    0.6805 N   0  0  0  0  0  0  0  0  0  0  0  0
  -86.5961   27.8889    1.4307 N   0  0  0  0  0  0  0  0  0  0  0  0
  -86.1160   26.9314    1.1935 H   0  0  0  0  0  0  0  0  0  0  0  0
  -90.3017   27.7914    1.2576 C   0  0  0  0  0  0  0  0  0  0  0  0
  -88.9643   27.9649    0.9652 C   0  0  0  0  0  0  0  0  0  0  0  0
  -87.9243   27.7461    1.8622 C   0  0  0  0  0  0  0  0  0  0  0  0
  -88.3197   27.3301    3.1180 C   0  0  0  0  0  0  0  0  0  0  0  0
  -89.6487   27.1500    3.4270 C   0  0  0  0  0  0  0  0  0  0  0  0
  -90.6695   27.3771    2.5072 C   0  0  0  0  0  0  0  0  0  0  0  0
  -90.1140   26.6649    4.7628 C   0  0  0  0  0  0  0  0  0  0  0  0
  -91.4587   26.3670    4.6297 F   0  0  0  0  0  0  0  0  0  0  0  0
  -89.3622   25.5920    5.1280 F   0  0  0  0  0  0  0  0  0  0  0  0
  -90.0217   27.6631    5.7344 F   0  0  0  0  0  0  0  0  0  0  0  0
  -91.5455   29.0915   -0.5010 C   0  0  0  0  0  0  0  0  0  0  0  0
  -91.2303   28.0365    0.2918 O   0  0  0  0  0  0  0  0  0  0  0  0
  -85.3905   32.4419   -0.0768 N   0  0  0  0  0  0  0  0  0  0  0  0
  -84.6369   33.2068    0.0990 H   0  0  0  0  0  0  0  0  0  0  0  0
  -86.4209   32.9325   -0.8949 C   0  0  0  0  0  0  0  0  0  0  0  0
  -87.7280   32.6117   -0.7383 C   0  0  0  0  0  0  0  0  0  0  0  0
  -88.7315   33.0593   -1.5924 C   0  0  0  0  0  0  0  0  0  0  0  0
  -88.3472   33.8799   -2.6579 C   0  0  0  0  0  0  0  0  0  0  0  0
  -89.3065   34.3501   -3.5293 O   0  0  0  0  0  0  0  0  0  0  0  0
  -89.0508   35.4656   -4.3869 C   0  0  0  0  0  0  0  0  0  0  0  0
  -89.9548   35.4489   -5.6159 C   0  0  0  0  0  0  0  0  0  0  0  0
  -89.2222   36.7244   -3.5926 C   0  0  0  0  0  0  0  0  0  0  0  0
  -87.6456   35.3470   -4.8998 C   0  0  0  0  0  0  0  0  0  0  0  0
  -87.4050   35.5874   -6.1226 O   0  0  0  0  0  0  0  0  0  0  0  0
  -86.6474   34.9660   -3.9687 N   0  0  0  0  0  0  0  0  0  0  0  0
  -87.0189   34.2111   -2.8267 C   0  0  0  0  0  0  0  0  0  0  0  0
  -86.1155   33.7475   -1.9703 N   0  0  0  0  0  0  0  0  0  0  0  0
  -85.6674   35.2617   -4.1546 H   0  0  0  0  0  0  0  0  0  0  0  0
 20 21  1  0  0  0
 21 10  1  0  0  0
 10 11  2  0  0  0
 11 12  1  0  0  0
 12  8  1  0  0  0
  8  1  1  0  0  0
  1  2  2  0  0  0
  2  3  1  0  0  0
  3  4  2  0  0  0
  4  5  1  0  0  0
  4  6  1  0  0  0
  6 22  1  0  0  0
 22 24  1  0  0  0
 24 25  2  0  0  0
 25 26  1  0  0  0
 26 27  2  0  0  0
 27 28  1  0  0  0
 28 29  1  0  0  0
 29 30  1  0  0  0
 29 31  1  0  0  0
 29 32  1  0  0  0
 32 33  2  0  0  0
 32 34  1  0  0  0
 34 35  1  0  0  0
 35 36  2  0  0  0
  6  7  2  0  0  0
 12 13  2  0  0  0
 13 14  1  0  0  0
 14 15  2  0  0  0
 14 16  1  0  0  0
 16 17  1  0  0  0
 16 18  1  0  0  0
 16 19  1  0  0  0
 15 10  1  0  0  0
  7  1  1  0  0  0
 36 24  1  0  0  0
 35 27  1  0  0  0
  8  9  1  0  0  0
 22 23  1  0  0  0
 34 37  1  0  0  0
M  END
> <minimizedAffinity>
-10.02006

> <CNNscore>
0.8794297576

> <CNNaffinity>
7.7661180496

> <CNN_VS>
6.8297553062

> <CNNaffinity_variance>
0.0907816142

$$$$
[H]c1nc(N([H])c2c([H])c(OC([H])([H])[H])c([H])c(C(F)(F)F)c2[H])nc(N([H])c2nc3c(c([H])c2[H])OC(C([H])([H])[H])(C([H])([H])[H])C(=O)N3[H])c1F


 37 40  0  0  0  0  0  0  0  0999 V2000
  -85.0948   29.0525    1.3233 C   0  0  0  0  0  0  0  0  0  0  0  0
  -83.7796   29.0141    1.8021 N   0  0  0  0  0  0  0  0  0  0  0  0
  -82.9419   30.0203    1.6599 C   0  0  0  0  0  0  0  0  0  0  0  0
  -83.3241   31.1668    1.0289 C   0  0  0  0  0  0  0  0  0  0  0  0
  -82.4642   32.2207    0.8833 F   0  0  0  0  0  0  0  0  0  0  0  0
  -84.6501   31.2651    0.5220 C   0  0  0  0  0  0  0  0  0  0  0  0
  -85.4287   30.1919    0.7122 N   0  0  0  0  0  0  0  0  0  0  0  0
  -85.8417   27.8932    1.5400 N   0  0  0  0  0  0  0  0  0  0  0  0
  -85.2383   27.0040    1.7608 H   0  0  0  0  0  0  0  0  0  0  0  0
  -89.0680   26.2943    2.4375 C   0  0  0  0  0  0  0  0  0  0  0  0
  -87.7277   26.5986    2.3130 C   0  0  0  0  0  0  0  0  0  0  0  0
  -87.2214   27.6341    1.5350 C   0  0  0  0  0  0  0  0  0  0  0  0
  -88.1740   28.3725    0.8615 C   0  0  0  0  0  0  0  0  0  0  0  0
  -89.5150   28.0848    0.9751 C   0  0  0  0  0  0  0  0  0  0  0  0
  -89.9933   27.0404    1.7627 C   0  0  0  0  0  0  0  0  0  0  0  0
  -90.5785   28.8839    0.2921 C   0  0  0  0  0  0  0  0  0  0  0  0
  -90.0858   30.1705    0.1629 F   0  0  0  0  0  0  0  0  0  0  0  0
  -90.8696   28.3003   -0.9014 F   0  0  0  0  0  0  0  0  0  0  0  0
  -91.7337   28.9762    1.0705 F   0  0  0  0  0  0  0  0  0  0  0  0
  -90.6102   24.6247    3.5163 C   0  0  0  0  0  0  0  0  0  0  0  0
  -89.4421   25.2542    3.2333 O   0  0  0  0  0  0  0  0  0  0  0  0
  -84.9341   32.4619   -0.1210 N   0  0  0  0  0  0  0  0  0  0  0  0
  -84.1813   33.2453   -0.0599 H   0  0  0  0  0  0  0  0  0  0  0  0
  -86.0459   32.8923   -0.8628 C   0  0  0  0  0  0  0  0  0  0  0  0
  -87.3227   32.5293   -0.5905 C   0  0  0  0  0  0  0  0  0  0  0  0
  -88.4090   32.9168   -1.3692 C   0  0  0  0  0  0  0  0  0  0  0  0
  -88.1447   33.7207   -2.4829 C   0  0  0  0  0  0  0  0  0  0  0  0
  -89.1894   34.1317   -3.2832 O   0  0  0  0  0  0  0  0  0  0  0  0
  -89.0473   35.2314   -4.1865 C   0  0  0  0  0  0  0  0  0  0  0  0
  -90.0477   35.1482   -5.3355 C   0  0  0  0  0  0  0  0  0  0  0  0
  -89.2008   36.5049   -3.4121 C   0  0  0  0  0  0  0  0  0  0  0  0
  -87.6854   35.1490   -4.8110 C   0  0  0  0  0  0  0  0  0  0  0  0
  -87.5551   35.3637   -6.0551 O   0  0  0  0  0  0  0  0  0  0  0  0
  -86.6005   34.8300   -3.9566 N   0  0  0  0  0  0  0  0  0  0  0  0
  -86.8483   34.0944   -2.7694 C   0  0  0  0  0  0  0  0  0  0  0  0
  -85.8608   33.6875   -1.9796 N   0  0  0  0  0  0  0  0  0  0  0  0
  -85.6510   35.1554   -4.2304 H   0  0  0  0  0  0  0  0  0  0  0  0
 20 21  1  0  0  0
 21 10  1  0  0  0
 10 11  2  0  0  0
 11 12  1  0  0  0
 12  8  1  0  0  0
  8  1  1  0  0  0
  1  2  2  0  0  0
  2  3  1  0  0  0
  3  4  2  0  0  0
  4  5  1  0  0  0
  4  6  1  0  0  0
  6 22  1  0  0  0
 22 24  1  0  0  0
 24 25  2  0  0  0
 25 26  1  0  0  0
 26 27  2  0  0  0
 27 28  1  0  0  0
 28 29  1  0  0  0
 29 30  1  0  0  0
 29 31  1  0  0  0
 29 32  1  0  0  0
 32 33  2  0  0  0
 32 34  1  0  0  0
 34 35  1  0  0  0
 35 36  2  0  0  0
  6  7  2  0  0  0
 12 13  2  0  0  0
 13 14  1  0  0  0
 14 15  2  0  0  0
 14 16  1  0  0  0
 16 17  1  0  0  0
 16 18  1  0  0  0
 16 19  1  0  0  0
 15 10  1  0  0  0
  7  1  1  0  0  0
 36 24  1  0  0  0
 35 27  1  0  0  0
  8  9  1  0  0  0
 22 23  1  0  0  0
 34 37  1  0  0  0
M  END
> <minimizedAffinity>
-9.56222

> <CNNscore>
0.8066127300

> <CNNaffinity>
7.7138261795

> <CNN_VS>
6.2220702171

> <CNNaffinity_variance>
0.0799006447

$$$$
[H]c1nc(N([H])c2c([H])c(OC([H])([H])[H])c([H])c(C(F)(F)F)c2[H])nc(N([H])c2nc3c(c([H])c2[H])OC(C([H])([H])[H])(C([H])([H])[H])C(=O)N3[H])c1F


 37 40  0  0  0  0  0  0  0  0999 V2000
  -85.3423   27.5975    1.9603 C   0  0  0  0  0  0  0  0  0  0  0  0
  -84.0817   27.2076    2.4288 N   0  0  0  0  0  0  0  0  0  0  0  0
  -83.0404   28.0139    2.4222 C   0  0  0  0  0  0  0  0  0  0  0  0
  -83.1442   29.2889    1.9507 C   0  0  0  0  0  0  0  0  0  0  0  0
  -82.0707   30.1369    1.9471 F   0  0  0  0  0  0  0  0  0  0  0  0
  -84.4013   29.7428    1.4624 C   0  0  0  0  0  0  0  0  0  0  0  0
  -85.4010   28.8524    1.5077 N   0  0  0  0  0  0  0  0  0  0  0  0
  -86.3306   26.6135    2.0202 N   0  0  0  0  0  0  0  0  0  0  0  0
  -85.9425   25.5903    2.0975 H   0  0  0  0  0  0  0  0  0  0  0  0
  -89.8101   25.9543    0.9115 C   0  0  0  0  0  0  0  0  0  0  0  0
  -88.4342   26.0221    0.9928 C   0  0  0  0  0  0  0  0  0  0  0  0
  -87.7332   26.6700    2.0041 C   0  0  0  0  0  0  0  0  0  0  0  0
  -88.5231   27.2711    2.9637 C   0  0  0  0  0  0  0  0  0  0  0  0
  -89.8966   27.2124    2.9000 C   0  0  0  0  0  0  0  0  0  0  0  0
  -90.5719   26.5555    1.8741 C   0  0  0  0  0  0  0  0  0  0  0  0
  -90.7851   27.8179    3.9391 C   0  0  0  0  0  0  0  0  0  0  0  0
  -91.5913   28.7337    3.2863 F   0  0  0  0  0  0  0  0  0  0  0  0
  -91.4879   26.8264    4.5496 F   0  0  0  0  0  0  0  0  0  0  0  0
  -90.0542   28.5359    4.8874 F   0  0  0  0  0  0  0  0  0  0  0  0
  -89.9351   24.7243   -1.2796 C   0  0  0  0  0  0  0  0  0  0  0  0
  -90.3823   25.2871   -0.1289 O   0  0  0  0  0  0  0  0  0  0  0  0
  -84.3979   31.0464    0.9858 N   0  0  0  0  0  0  0  0  0  0  0  0
  -83.6788   31.7319    1.4296 H   0  0  0  0  0  0  0  0  0  0  0  0
  -85.1704   31.6944    0.0086 C   0  0  0  0  0  0  0  0  0  0  0  0
  -84.8459   32.8893   -0.5417 C   0  0  0  0  0  0  0  0  0  0  0  0
  -85.6508   33.5474   -1.4668 C   0  0  0  0  0  0  0  0  0  0  0  0
  -86.8492   32.9248   -1.8311 C   0  0  0  0  0  0  0  0  0  0  0  0
  -87.6784   33.5375   -2.7462 O   0  0  0  0  0  0  0  0  0  0  0  0
  -88.6989   32.8071   -3.4322 C   0  0  0  0  0  0  0  0  0  0  0  0
  -89.8208   33.7234   -3.9113 C   0  0  0  0  0  0  0  0  0  0  0  0
  -88.0680   32.0650   -4.5707 C   0  0  0  0  0  0  0  0  0  0  0  0
  -89.3253   31.8537   -2.4573 C   0  0  0  0  0  0  0  0  0  0  0  0
  -90.5869   31.7151   -2.4425 O   0  0  0  0  0  0  0  0  0  0  0  0
  -88.4528   31.1477   -1.5918 N   0  0  0  0  0  0  0  0  0  0  0  0
  -87.1891   31.7090   -1.2755 C   0  0  0  0  0  0  0  0  0  0  0  0
  -86.3701   31.1387   -0.3989 N   0  0  0  0  0  0  0  0  0  0  0  0
  -88.7711   30.2298   -1.2196 H   0  0  0  0  0  0  0  0  0  0  0  0
 20 21  1  0  0  0
 21 10  1  0  0  0
 10 11  2  0  0  0
 11 12  1  0  0  0
 12  8  1  0  0  0
  8  1  1  0  0  0
  1  2  2  0  0  0
  2  3  1  0  0  0
  3  4  2  0  0  0
  4  5  1  0  0  0
  4  6  1  0  0  0
  6 22  1  0  0  0
 22 24  1  0  0  0
 24 25  2  0  0  0
 25 26  1  0  0  0
 26 27  2  0  0  0
 27 28  1  0  0  0
 28 29  1  0  0  0
 29 30  1  0  0  0
 29 31  1  0  0  0
 29 32  1  0  0  0
 32 33  2  0  0  0
 32 34  1  0  0  0
 34 35  1  0  0  0
 35 36  2  0  0  0
  6  7  2  0  0  0
 12 13  2  0  0  0
 13 14  1  0  0  0
 14 15  2  0  0  0
 14 16  1  0  0  0
 16 17  1  0  0  0
 16 18  1  0  0  0
 16 19  1  0  0  0
 15 10  1  0  0  0
  7  1  1  0  0  0
 36 24  1  0  0  0
 35 27  1  0  0  0
  8  9  1  0  0  0
 22 23  1  0  0  0
 34 37  1  0  0  0
M  END
> <minimizedAffinity>
-10.19047

> <CNNscore>
0.7026807666

> <CNNaffinity>
7.7287797928

> <CNN_VS>
5.4308648109

> <CNNaffinity_variance>
0.0546510592

$$$$
[H]c1nc(N([H])c2c([H])c(OC([H])([H])[H])c([H])c(C(F)(F)F)c2[H])nc(N([H])c2nc3c(c([H])c2[H])OC(C([H])([H])[H])(C([H])([H])[H])C(=O)N3[H])c1F


 37 40  0  0  0  0  0  0  0  0999 V2000
  -84.9009   32.8278   -0.9074 C   0  0  0  0  0  0  0  0  0  0  0  0
  -83.5438   33.0196   -0.6213 N   0  0  0  0  0  0  0  0  0  0  0  0
  -82.8645   32.2178    0.1726 C   0  0  0  0  0  0  0  0  0  0  0  0
  -83.4626   31.1442    0.7627 C   0  0  0  0  0  0  0  0  0  0  0  0
  -82.7639   30.3007    1.5823 F   0  0  0  0  0  0  0  0  0  0  0  0
  -84.8407   30.8971    0.5083 C   0  0  0  0  0  0  0  0  0  0  0  0
  -85.4481   31.7663   -0.3101 N   0  0  0  0  0  0  0  0  0  0  0  0
  -85.4724   33.7817   -1.7513 N   0  0  0  0  0  0  0  0  0  0  0  0
  -84.8786   34.6975   -1.8624 H   0  0  0  0  0  0  0  0  0  0  0  0
  -88.3943   35.1720   -3.5681 C   0  0  0  0  0  0  0  0  0  0  0  0
  -87.2629   35.0233   -2.7921 C   0  0  0  0  0  0  0  0  0  0  0  0
  -86.6628   33.8044   -2.4951 C   0  0  0  0  0  0  0  0  0  0  0  0
  -87.2894   32.7016   -3.0403 C   0  0  0  0  0  0  0  0  0  0  0  0
  -88.4174   32.8308   -3.8182 C   0  0  0  0  0  0  0  0  0  0  0  0
  -88.9967   34.0658   -4.0991 C   0  0  0  0  0  0  0  0  0  0  0  0
  -89.1023   31.6650   -4.4568 C   0  0  0  0  0  0  0  0  0  0  0  0
  -90.3024   32.1367   -4.9586 F   0  0  0  0  0  0  0  0  0  0  0  0
  -88.2883   31.1471   -5.4154 F   0  0  0  0  0  0  0  0  0  0  0  0
  -89.4219   30.6793   -3.5212 F   0  0  0  0  0  0  0  0  0  0  0  0
  -90.0894   36.9358   -4.1556 C   0  0  0  0  0  0  0  0  0  0  0  0
  -88.8882   36.4217   -3.7903 O   0  0  0  0  0  0  0  0  0  0  0  0
  -85.3605   29.7942    1.1715 N   0  0  0  0  0  0  0  0  0  0  0  0
  -84.7894   29.4117    2.0150 H   0  0  0  0  0  0  0  0  0  0  0  0
  -86.5212   29.0314    0.9652 C   0  0  0  0  0  0  0  0  0  0  0  0
  -87.5090   29.3760    0.1041 C   0  0  0  0  0  0  0  0  0  0  0  0
  -88.6806   28.6404   -0.0474 C   0  0  0  0  0  0  0  0  0  0  0  0
  -88.8226   27.4924    0.7390 C   0  0  0  0  0  0  0  0  0  0  0  0
  -89.9653   26.7300    0.6220 O   0  0  0  0  0  0  0  0  0  0  0  0
  -90.0123   25.3815    1.0961 C   0  0  0  0  0  0  0  0  0  0  0  0
  -91.4409   24.9433    1.4045 C   0  0  0  0  0  0  0  0  0  0  0  0
  -89.3722   24.4953    0.0715 C   0  0  0  0  0  0  0  0  0  0  0  0
  -89.2655   25.3179    2.3961 C   0  0  0  0  0  0  0  0  0  0  0  0
  -89.7497   24.6522    3.3623 O   0  0  0  0  0  0  0  0  0  0  0  0
  -88.0363   26.0193    2.4706 N   0  0  0  0  0  0  0  0  0  0  0  0
  -87.8234   27.1339    1.6195 C   0  0  0  0  0  0  0  0  0  0  0  0
  -86.7310   27.8843    1.7097 N   0  0  0  0  0  0  0  0  0  0  0  0
  -87.3232   25.6847    3.1503 H   0  0  0  0  0  0  0  0  0  0  0  0
 20 21  1  0  0  0
 21 10  1  0  0  0
 10 11  2  0  0  0
 11 12  1  0  0  0
 12  8  1  0  0  0
  8  1  1  0  0  0
  1  2  2  0  0  0
  2  3  1  0  0  0
  3  4  2  0  0  0
  4  5  1  0  0  0
  4  6  1  0  0  0
  6 22  1  0  0  0
 22 24  1  0  0  0
 24 25  2  0  0  0
 25 26  1  0  0  0
 26 27  2  0  0  0
 27 28  1  0  0  0
 28 29  1  0  0  0
 29 30  1  0  0  0
 29 31  1  0  0  0
 29 32  1  0  0  0
 32 33  2  0  0  0
 32 34  1  0  0  0
 34 35  1  0  0  0
 35 36  2  0  0  0
  6  7  2  0  0  0
 12 13  2  0  0  0
 13 14  1  0  0  0
 14 15  2  0  0  0
 14 16  1  0  0  0
 16 17  1  0  0  0
 16 18  1  0  0  0
 16 19  1  0  0  0
 15 10  1  0  0  0
  7  1  1  0  0  0
 36 24  1  0  0  0
 35 27  1  0  0  0
  8  9  1  0  0  0
 22 23  1  0  0  0
 34 37  1  0  0  0
M  END
> <minimizedAffinity>
-8.83101

> <CNNscore>
0.5338745713

> <CNNaffinity>
7.4710884094

> <CNN_VS>
3.9886240959

> <CNNaffinity_variance>
0.2619166672

$$$$
[H]c1nc(N([H])c2c([H])c(OC([H])([H])[H])c([H])c(C(F)(F)F)c2[H])nc(N([H])c2nc3c(c([H])c2[H])OC(C([H])([H])[H])(C([H])([H])[H])C(=O)N3[H])c1F


 37 40  0  0  0  0  0  0  0  0999 V2000
  -85.1040   33.1660   -0.9111 C   0  0  0  0  0  0  0  0  0  0  0  0
  -83.7187   33.3694   -0.9043 N   0  0  0  0  0  0  0  0  0  0  0  0
  -82.9040   32.6869   -0.1265 C   0  0  0  0  0  0  0  0  0  0  0  0
  -83.3809   31.7331    0.7230 C   0  0  0  0  0  0  0  0  0  0  0  0
  -82.5422   31.0131    1.5290 F   0  0  0  0  0  0  0  0  0  0  0  0
  -84.7808   31.4807    0.7595 C   0  0  0  0  0  0  0  0  0  0  0  0
  -85.5296   32.2243   -0.0655 N   0  0  0  0  0  0  0  0  0  0  0  0
  -85.8225   33.9884   -1.7807 N   0  0  0  0  0  0  0  0  0  0  0  0
  -85.7208   35.0608   -1.5727 H   0  0  0  0  0  0  0  0  0  0  0  0
  -87.8905   32.0280   -4.1579 C   0  0  0  0  0  0  0  0  0  0  0  0
  -87.0279   32.4057   -3.1491 C   0  0  0  0  0  0  0  0  0  0  0  0
  -86.6539   33.7176   -2.8789 C   0  0  0  0  0  0  0  0  0  0  0  0
  -87.2147   34.6639   -3.7133 C   0  0  0  0  0  0  0  0  0  0  0  0
  -88.0783   34.3060   -4.7233 C   0  0  0  0  0  0  0  0  0  0  0  0
  -88.4351   32.9826   -4.9705 C   0  0  0  0  0  0  0  0  0  0  0  0
  -88.7349   35.3037   -5.6230 C   0  0  0  0  0  0  0  0  0  0  0  0
  -89.2339   36.3043   -4.8078 F   0  0  0  0  0  0  0  0  0  0  0  0
  -87.8201   35.7539   -6.5232 F   0  0  0  0  0  0  0  0  0  0  0  0
  -89.8292   34.7527   -6.2922 F   0  0  0  0  0  0  0  0  0  0  0  0
  -88.0835   29.5927   -3.5565 C   0  0  0  0  0  0  0  0  0  0  0  0
  -88.1827   30.7080   -4.3227 O   0  0  0  0  0  0  0  0  0  0  0  0
  -85.1674   30.5078    1.6708 N   0  0  0  0  0  0  0  0  0  0  0  0
  -84.9225   30.6858    2.7159 H   0  0  0  0  0  0  0  0  0  0  0  0
  -85.8345   29.2822    1.5143 C   0  0  0  0  0  0  0  0  0  0  0  0
  -85.4058   28.1143    2.0512 C   0  0  0  0  0  0  0  0  0  0  0  0
  -86.0455   26.8966    1.8396 C   0  0  0  0  0  0  0  0  0  0  0  0
  -87.1854   26.9040    1.0291 C   0  0  0  0  0  0  0  0  0  0  0  0
  -87.8544   25.7219    0.7927 O   0  0  0  0  0  0  0  0  0  0  0  0
  -89.1990   25.7120    0.3055 C   0  0  0  0  0  0  0  0  0  0  0  0
  -89.5258   24.4084   -0.4168 C   0  0  0  0  0  0  0  0  0  0  0  0
  -90.1241   25.9505    1.4597 C   0  0  0  0  0  0  0  0  0  0  0  0
  -89.3324   26.8016   -0.7176 C   0  0  0  0  0  0  0  0  0  0  0  0
  -89.9660   26.5738   -1.7934 O   0  0  0  0  0  0  0  0  0  0  0  0
  -88.7307   28.0489   -0.4159 N   0  0  0  0  0  0  0  0  0  0  0  0
  -87.6291   28.0874    0.4768 C   0  0  0  0  0  0  0  0  0  0  0  0
  -86.9679   29.2127    0.7239 N   0  0  0  0  0  0  0  0  0  0  0  0
  -89.1263   28.9024   -0.8603 H   0  0  0  0  0  0  0  0  0  0  0  0
 20 21  1  0  0  0
 21 10  1  0  0  0
 10 11  2  0  0  0
 11 12  1  0  0  0
 12  8  1  0  0  0
  8  1  1  0  0  0
  1  2  2  0  0  0
  2  3  1  0  0  0
  3  4  2  0  0  0
  4  5  1  0  0  0
  4  6  1  0  0  0
  6 22  1  0  0  0
 22 24  1  0  0  0
 24 25  2  0  0  0
 25 26  1  0  0  0
 26 27  2  0  0  0
 27 28  1  0  0  0
 28 29  1  0  0  0
 29 30  1  0  0  0
 29 31  1  0  0  0
 29 32  1  0  0  0
 32 33  2  0  0  0
 32 34  1  0  0  0
 34 35  1  0  0  0
 35 36  2  0  0  0
  6  7  2  0  0  0
 12 13  2  0  0  0
 13 14  1  0  0  0
 14 15  2  0  0  0
 14 16  1  0  0  0
 16 17  1  0  0  0
 16 18  1  0  0  0
 16 19  1  0  0  0
 15 10  1  0  0  0
  7  1  1  0  0  0
 36 24  1  0  0  0
 35 27  1  0  0  0
  8  9  1  0  0  0
 22 23  1  0  0  0
 34 37  1  0  0  0
M  END
> <minimizedAffinity>
-9.36841

> <CNNscore>
0.3887780607

> <CNNaffinity>
7.2509293556

> <CNN_VS>
2.8190021515

> <CNNaffinity_variance>
0.1326408833

$$$$
[H]c1nc(N([H])c2c([H])c(OC([H])([H])[H])c([H])c(C(F)(F)F)c2[H])nc(N([H])c2nc3c(c([H])c2[H])OC(C([H])([H])[H])(C([H])([H])[H])C(=O)N3[H])c1F


 37 40  0  0  0  0  0  0  0  0999 V2000
  -84.9443   33.0331   -0.7737 C   0  0  0  0  0  0  0  0  0  0  0  0
  -83.5542   33.1987   -0.7481 N   0  0  0  0  0  0  0  0  0  0  0  0
  -82.7632   32.4527   -0.0048 C   0  0  0  0  0  0  0  0  0  0  0  0
  -83.2710   31.4666    0.7879 C   0  0  0  0  0  0  0  0  0  0  0  0
  -82.4572   30.6810    1.5573 F   0  0  0  0  0  0  0  0  0  0  0  0
  -84.6772   31.2500    0.8026 C   0  0  0  0  0  0  0  0  0  0  0  0
  -85.4004   32.0578    0.0160 N   0  0  0  0  0  0  0  0  0  0  0  0
  -85.6348   33.9212   -1.6003 N   0  0  0  0  0  0  0  0  0  0  0  0
  -85.4113   34.9784   -1.4109 H   0  0  0  0  0  0  0  0  0  0  0  0
  -87.7535   34.7214   -4.5400 C   0  0  0  0  0  0  0  0  0  0  0  0
  -86.9053   34.8034   -3.4545 C   0  0  0  0  0  0  0  0  0  0  0  0
  -86.5635   33.7324   -2.6359 C   0  0  0  0  0  0  0  0  0  0  0  0
  -87.1467   32.5295   -2.9813 C   0  0  0  0  0  0  0  0  0  0  0  0
  -87.9936   32.4284   -4.0614 C   0  0  0  0  0  0  0  0  0  0  0  0
  -88.3179   33.5194   -4.8641 C   0  0  0  0  0  0  0  0  0  0  0  0
  -88.6144   31.1372   -4.4895 C   0  0  0  0  0  0  0  0  0  0  0  0
  -88.8977   31.2616   -5.8382 F   0  0  0  0  0  0  0  0  0  0  0  0
  -87.7520   30.1218   -4.2156 F   0  0  0  0  0  0  0  0  0  0  0  0
  -89.8328   30.9128   -3.8459 F   0  0  0  0  0  0  0  0  0  0  0  0
  -87.4261   36.4669   -6.3220 C   0  0  0  0  0  0  0  0  0  0  0  0
  -88.0107   35.8430   -5.2685 O   0  0  0  0  0  0  0  0  0  0  0  0
  -85.0957   30.2389    1.6564 N   0  0  0  0  0  0  0  0  0  0  0  0
  -84.8124   30.3285    2.7031 H   0  0  0  0  0  0  0  0  0  0  0  0
  -85.8381   29.0674    1.4370 C   0  0  0  0  0  0  0  0  0  0  0  0
  -85.5739   27.8816    2.0370 C   0  0  0  0  0  0  0  0  0  0  0  0
  -86.2819   26.7145    1.7661 C   0  0  0  0  0  0  0  0  0  0  0  0
  -87.3127   26.7945    0.8240 C   0  0  0  0  0  0  0  0  0  0  0  0
  -88.0438   25.6648    0.5243 O   0  0  0  0  0  0  0  0  0  0  0  0
  -89.3170   25.7514   -0.1213 C   0  0  0  0  0  0  0  0  0  0  0  0
  -89.6617   24.4618   -0.8603 C   0  0  0  0  0  0  0  0  0  0  0  0
  -90.3502   26.0897    0.9098 C   0  0  0  0  0  0  0  0  0  0  0  0
  -89.2375   26.8244   -1.1672 C   0  0  0  0  0  0  0  0  0  0  0  0
  -89.7551   26.6233   -2.3085 O   0  0  0  0  0  0  0  0  0  0  0  0
  -88.5754   28.0260   -0.8118 N   0  0  0  0  0  0  0  0  0  0  0  0
  -87.5885   27.9967    0.2066 C   0  0  0  0  0  0  0  0  0  0  0  0
  -86.8711   29.0708    0.5166 N   0  0  0  0  0  0  0  0  0  0  0  0
  -88.8436   28.8980   -1.3119 H   0  0  0  0  0  0  0  0  0  0  0  0
 20 21  1  0  0  0
 21 10  1  0  0  0
 10 11  2  0  0  0
 11 12  1  0  0  0
 12  8  1  0  0  0
  8  1  1  0  0  0
  1  2  2  0  0  0
  2  3  1  0  0  0
  3  4  2  0  0  0
  4  5  1  0  0  0
  4  6  1  0  0  0
  6 22  1  0  0  0
 22 24  1  0  0  0
 24 25  2  0  0  0
 25 26  1  0  0  0
 26 27  2  0  0  0
 27 28  1  0  0  0
 28 29  1  0  0  0
 29 30  1  0  0  0
 29 31  1  0  0  0
 29 32  1  0  0  0
 32 33  2  0  0  0
 32 34  1  0  0  0
 34 35  1  0  0  0
 35 36  2  0  0  0
  6  7  2  0  0  0
 12 13  2  0  0  0
 13 14  1  0  0  0
 14 15  2  0  0  0
 14 16  1  0  0  0
 16 17  1  0  0  0
 16 18  1  0  0  0
 16 19  1  0  0  0
 15 10  1  0  0  0
  7  1  1  0  0  0
 36 24  1  0  0  0
 35 27  1  0  0  0
  8  9  1  0  0  0
 22 23  1  0  0  0
 34 37  1  0  0  0
M  END
> <minimizedAffinity>
-9.53287

> <CNNscore>
0.3720725775

> <CNNaffinity>
7.3290605545

> <CNN_VS>
2.7269425392

> <CNNaffinity_variance>
0.1036724448

$$$$
[H]c1nc(N([H])c2c([H])c(OC([H])([H])[H])c([H])c(C(F)(F)F)c2[H])nc(N([H])c2nc3c(c([H])c2[H])OC(C([H])([H])[H])(C([H])([H])[H])C(=O)N3[H])c1F


 37 40  0  0  0  0  0  0  0  0999 V2000
  -84.7119   32.1561    0.1754 C   0  0  0  0  0  0  0  0  0  0  0  0
  -83.3536   32.3374    0.4624 N   0  0  0  0  0  0  0  0  0  0  0  0
  -82.6118   31.3983    1.0123 C   0  0  0  0  0  0  0  0  0  0  0  0
  -83.1423   30.1840    1.3328 C   0  0  0  0  0  0  0  0  0  0  0  0
  -82.3784   29.1991    1.8967 F   0  0  0  0  0  0  0  0  0  0  0  0
  -84.5181   29.9403    1.0633 C   0  0  0  0  0  0  0  0  0  0  0  0
  -85.1918   30.9543    0.5045 N   0  0  0  0  0  0  0  0  0  0  0  0
  -85.3543   33.2601   -0.3880 N   0  0  0  0  0  0  0  0  0  0  0  0
  -84.8520   34.2171   -0.2000 H   0  0  0  0  0  0  0  0  0  0  0  0
  -88.8636   32.7330   -1.4733 C   0  0  0  0  0  0  0  0  0  0  0  0
  -87.6446   32.6384   -0.8333 C   0  0  0  0  0  0  0  0  0  0  0  0
  -86.5220   33.3933   -1.1556 C   0  0  0  0  0  0  0  0  0  0  0  0
  -86.6996   34.2800   -2.1989 C   0  0  0  0  0  0  0  0  0  0  0  0
  -87.9085   34.3893   -2.8476 C   0  0  0  0  0  0  0  0  0  0  0  0
  -89.0166   33.6194   -2.5025 C   0  0  0  0  0  0  0  0  0  0  0  0
  -88.1510   35.3634   -3.9560 C   0  0  0  0  0  0  0  0  0  0  0  0
  -88.6235   34.6311   -5.0308 F   0  0  0  0  0  0  0  0  0  0  0  0
  -89.0284   36.3096   -3.5265 F   0  0  0  0  0  0  0  0  0  0  0  0
  -86.9663   35.9698   -4.3775 F   0  0  0  0  0  0  0  0  0  0  0  0
  -90.0053   30.8080   -0.3242 C   0  0  0  0  0  0  0  0  0  0  0  0
  -89.8922   31.9394   -1.0645 O   0  0  0  0  0  0  0  0  0  0  0  0
  -84.9663   28.6834    1.4450 N   0  0  0  0  0  0  0  0  0  0  0  0
  -84.3229   28.1115    2.1105 H   0  0  0  0  0  0  0  0  0  0  0  0
  -86.1292   27.9621    1.1303 C   0  0  0  0  0  0  0  0  0  0  0  0
  -86.6022   26.9303    1.8704 C   0  0  0  0  0  0  0  0  0  0  0  0
  -87.7237   26.1869    1.5149 C   0  0  0  0  0  0  0  0  0  0  0  0
  -88.3783   26.5414    0.3308 C   0  0  0  0  0  0  0  0  0  0  0  0
  -89.4957   25.8354   -0.0614 O   0  0  0  0  0  0  0  0  0  0  0  0
  -90.4104   26.3644   -1.0251 C   0  0  0  0  0  0  0  0  0  0  0  0
  -91.1928   25.2571   -1.7249 C   0  0  0  0  0  0  0  0  0  0  0  0
  -91.3218   27.3319   -0.3335 C   0  0  0  0  0  0  0  0  0  0  0  0
  -89.6145   27.0539   -2.0941 C   0  0  0  0  0  0  0  0  0  0  0  0
  -89.9324   26.8912   -3.3121 O   0  0  0  0  0  0  0  0  0  0  0  0
  -88.5313   27.8647   -1.6723 N   0  0  0  0  0  0  0  0  0  0  0  0
  -87.9039   27.5893   -0.4303 C   0  0  0  0  0  0  0  0  0  0  0  0
  -86.8275   28.2553   -0.0275 N   0  0  0  0  0  0  0  0  0  0  0  0
  -88.2351   28.6457   -2.2926 H   0  0  0  0  0  0  0  0  0  0  0  0
 20 21  1  0  0  0
 21 10  1  0  0  0
 10 11  2  0  0  0
 11 12  1  0  0  0
 12  8  1  0  0  0
  8  1  1  0  0  0
  1  2  2  0  0  0
  2  3  1  0  0  0
  3  4  2  0  0  0
  4  5  1  0  0  0
  4  6  1  0  0  0
  6 22  1  0  0  0
 22 24  1  0  0  0
 24 25  2  0  0  0
 25 26  1  0  0  0
 26 27  2  0  0  0
 27 28  1  0  0  0
 28 29  1  0  0  0
 29 30  1  0  0  0
 29 31  1  0  0  0
 29 32  1  0  0  0
 32 33  2  0  0  0
 32 34  1  0  0  0
 34 35  1  0  0  0
 35 36  2  0  0  0
  6  7  2  0  0  0
 12 13  2  0  0  0
 13 14  1  0  0  0
 14 15  2  0  0  0
 14 16  1  0  0  0
 16 17  1  0  0  0
 16 18  1  0  0  0
 16 19  1  0  0  0
 15 10  1  0  0  0
  7  1  1  0  0  0
 36 24  1  0  0  0
 35 27  1  0  0  0
  8  9  1  0  0  0
 22 23  1  0  0  0
 34 37  1  0  0  0
M  END
> <minimizedAffinity>
-9.57320

> <CNNscore>
0.3612358272

> <CNNaffinity>
7.3068466187

> <CNN_VS>
2.6394948959

> <CNNaffinity_variance>
0.1155338064

$$$$
[H]c1nc(N([H])c2c([H])c(OC([H])([H])[H])c([H])c(C(F)(F)F)c2[H])nc(N([H])c2nc3c(c([H])c2[H])OC(C([H])([H])[H])(C([H])([H])[H])C(=O)N3[H])c1F


 37 40  0  0  0  0  0  0  0  0999 V2000
  -84.9332   28.7643    1.5305 C   0  0  0  0  0  0  0  0  0  0  0  0
  -83.5770   28.8159    1.8749 N   0  0  0  0  0  0  0  0  0  0  0  0
  -82.8408   29.8944    1.7039 C   0  0  0  0  0  0  0  0  0  0  0  0
  -83.3755   31.0313    1.1745 C   0  0  0  0  0  0  0  0  0  0  0  0
  -82.6214   32.1593    1.0004 F   0  0  0  0  0  0  0  0  0  0  0  0
  -84.7499   31.0397    0.8063 C   0  0  0  0  0  0  0  0  0  0  0  0
  -85.4172   29.8973    1.0158 N   0  0  0  0  0  0  0  0  0  0  0  0
  -85.5595   27.5377    1.7586 N   0  0  0  0  0  0  0  0  0  0  0  0
  -84.8822   26.7421    2.0927 H   0  0  0  0  0  0  0  0  0  0  0  0
  -89.1885   27.2979    2.4957 C   0  0  0  0  0  0  0  0  0  0  0  0
  -87.8412   27.5921    2.5467 C   0  0  0  0  0  0  0  0  0  0  0  0
  -86.8933   27.1143    1.6483 C   0  0  0  0  0  0  0  0  0  0  0  0
  -87.3946   26.2905    0.6602 C   0  0  0  0  0  0  0  0  0  0  0  0
  -88.7354   25.9876    0.5926 C   0  0  0  0  0  0  0  0  0  0  0  0
  -89.6624   26.4814    1.5072 C   0  0  0  0  0  0  0  0  0  0  0  0
  -89.3218   25.1305   -0.4834 C   0  0  0  0  0  0  0  0  0  0  0  0
  -90.6729   25.4252   -0.5324 F   0  0  0  0  0  0  0  0  0  0  0  0
  -88.6757   25.3876   -1.6522 F   0  0  0  0  0  0  0  0  0  0  0  0
  -89.2214   23.7731   -0.1732 F   0  0  0  0  0  0  0  0  0  0  0  0
  -90.0915   27.8056    4.7884 C   0  0  0  0  0  0  0  0  0  0  0  0
  -90.0208   27.8295    3.4337 O   0  0  0  0  0  0  0  0  0  0  0  0
  -85.1924   32.2355    0.2580 N   0  0  0  0  0  0  0  0  0  0  0  0
  -84.6786   33.1419    0.5718 H   0  0  0  0  0  0  0  0  0  0  0  0
  -86.2172   32.5312   -0.6553 C   0  0  0  0  0  0  0  0  0  0  0  0
  -87.4067   31.8834   -0.6924 C   0  0  0  0  0  0  0  0  0  0  0  0
  -88.3906   32.1478   -1.6404 C   0  0  0  0  0  0  0  0  0  0  0  0
  -88.1150   33.1355   -2.5917 C   0  0  0  0  0  0  0  0  0  0  0  0
  -89.0604   33.4341   -3.5496 O   0  0  0  0  0  0  0  0  0  0  0  0
  -89.0071   34.6546   -4.2933 C   0  0  0  0  0  0  0  0  0  0  0  0
  -89.7346   34.5316   -5.6288 C   0  0  0  0  0  0  0  0  0  0  0  0
  -89.5837   35.7503   -3.4495 C   0  0  0  0  0  0  0  0  0  0  0  0
  -87.5709   34.9369   -4.6238 C   0  0  0  0  0  0  0  0  0  0  0  0
  -87.2664   35.3446   -5.7866 O   0  0  0  0  0  0  0  0  0  0  0  0
  -86.6177   34.7281   -3.5959 N   0  0  0  0  0  0  0  0  0  0  0  0
  -86.9065   33.7997   -2.5632 C   0  0  0  0  0  0  0  0  0  0  0  0
  -86.0147   33.4950   -1.6270 N   0  0  0  0  0  0  0  0  0  0  0  0
  -85.7325   35.2736   -3.6323 H   0  0  0  0  0  0  0  0  0  0  0  0
 20 21  1  0  0  0
 21 10  1  0  0  0
 10 11  2  0  0  0
 11 12  1  0  0  0
 12  8  1  0  0  0
  8  1  1  0  0  0
  1  2  2  0  0  0
  2  3  1  0  0  0
  3  4  2  0  0  0
  4  5  1  0  0  0
  4  6  1  0  0  0
  6 22  1  0  0  0
 22 24  1  0  0  0
 24 25  2  0  0  0
 25 26  1  0  0  0
 26 27  2  0  0  0
 27 28  1  0  0  0
 28 29  1  0  0  0
 29 30  1  0  0  0
 29 31  1  0  0  0
 29 32  1  0  0  0
 32 33  2  0  0  0
 32 34  1  0  0  0
 34 35  1  0  0  0
 35 36  2  0  0  0
  6  7  2  0  0  0
 12 13  2  0  0  0
 13 14  1  0  0  0
 14 15  2  0  0  0
 14 16  1  0  0  0
 16 17  1  0  0  0
 16 18  1  0  0  0
 16 19  1  0  0  0
 15 10  1  0  0  0
  7  1  1  0  0  0
 36 24  1  0  0  0
 35 27  1  0  0  0
  8  9  1  0  0  0
 22 23  1  0  0  0
 34 37  1  0  0  0
M  END
> <minimizedAffinity>
-9.59926

> <CNNscore>
0.3460743129

> <CNNaffinity>
7.2669019699

> <CNN_VS>
2.5148880482

> <CNNaffinity_variance>
0.2772018909

$$$$
[H]c1nc(N([H])c2c([H])c(OC([H])([H])[H])c([H])c(C(F)(F)F)c2[H])nc(N([H])c2nc3c(c([H])c2[H])OC(C([H])([H])[H])(C([H])([H])[H])C(=O)N3[H])c1F


 37 40  0  0  0  0  0  0  0  0999 V2000
  -85.9111   28.7135    0.8990 C   0  0  0  0  0  0  0  0  0  0  0  0
  -84.8271   28.6486    1.7828 N   0  0  0  0  0  0  0  0  0  0  0  0
  -84.0464   29.6808    2.0270 C   0  0  0  0  0  0  0  0  0  0  0  0
  -84.2623   30.8821    1.4196 C   0  0  0  0  0  0  0  0  0  0  0  0
  -83.4621   31.9625    1.6727 F   0  0  0  0  0  0  0  0  0  0  0  0
  -85.3504   31.0094    0.5117 C   0  0  0  0  0  0  0  0  0  0  0  0
  -86.0875   29.9066    0.3257 N   0  0  0  0  0  0  0  0  0  0  0  0
  -86.6222   27.5228    0.7400 N   0  0  0  0  0  0  0  0  0  0  0  0
  -86.3287   26.7272    1.4359 H   0  0  0  0  0  0  0  0  0  0  0  0
  -89.0161   27.7162   -2.0890 C   0  0  0  0  0  0  0  0  0  0  0  0
  -88.0658   28.0116   -1.1329 C   0  0  0  0  0  0  0  0  0  0  0  0
  -87.6481   27.1359   -0.1367 C   0  0  0  0  0  0  0  0  0  0  0  0
  -88.2650   25.9008   -0.1545 C   0  0  0  0  0  0  0  0  0  0  0  0
  -89.2135   25.5879   -1.1013 C   0  0  0  0  0  0  0  0  0  0  0  0
  -89.6122   26.4862   -2.0882 C   0  0  0  0  0  0  0  0  0  0  0  0
  -89.8762   24.2495   -1.1766 C   0  0  0  0  0  0  0  0  0  0  0  0
  -89.3150   23.4729   -0.1783 F   0  0  0  0  0  0  0  0  0  0  0  0
  -91.2187   24.4143   -1.0349 F   0  0  0  0  0  0  0  0  0  0  0  0
  -89.6010   23.6054   -2.3842 F   0  0  0  0  0  0  0  0  0  0  0  0
  -89.8057   29.9330   -2.9790 C   0  0  0  0  0  0  0  0  0  0  0  0
  -89.3406   28.6590   -3.0168 O   0  0  0  0  0  0  0  0  0  0  0  0
  -85.4725   32.2641   -0.0693 N   0  0  0  0  0  0  0  0  0  0  0  0
  -84.6697   32.9744    0.1177 H   0  0  0  0  0  0  0  0  0  0  0  0
  -86.4668   32.8340   -0.8806 C   0  0  0  0  0  0  0  0  0  0  0  0
  -87.7923   32.5955   -0.7319 C   0  0  0  0  0  0  0  0  0  0  0  0
  -88.7624   33.1215   -1.5798 C   0  0  0  0  0  0  0  0  0  0  0  0
  -88.3229   33.9338   -2.6303 C   0  0  0  0  0  0  0  0  0  0  0  0
  -89.2475   34.4797   -3.4951 O   0  0  0  0  0  0  0  0  0  0  0  0
  -88.9179   35.5910   -4.3329 C   0  0  0  0  0  0  0  0  0  0  0  0
  -89.8176   35.6538   -5.5635 C   0  0  0  0  0  0  0  0  0  0  0  0
  -89.0102   36.8444   -3.5171 C   0  0  0  0  0  0  0  0  0  0  0  0
  -87.5218   35.3909   -4.8452 C   0  0  0  0  0  0  0  0  0  0  0  0
  -87.2626   35.6362   -6.0633 O   0  0  0  0  0  0  0  0  0  0  0  0
  -86.5529   34.9304   -3.9190 N   0  0  0  0  0  0  0  0  0  0  0  0
  -86.9756   34.1815   -2.7909 C   0  0  0  0  0  0  0  0  0  0  0  0
  -86.1064   33.6460   -1.9411 N   0  0  0  0  0  0  0  0  0  0  0  0
  -85.5554   35.1654   -4.0981 H   0  0  0  0  0  0  0  0  0  0  0  0
 20 21  1  0  0  0
 21 10  1  0  0  0
 10 11  2  0  0  0
 11 12  1  0  0  0
 12  8  1  0  0  0
  8  1  1  0  0  0
  1  2  2  0  0  0
  2  3  1  0  0  0
  3  4  2  0  0  0
  4  5  1  0  0  0
  4  6  1  0  0  0
  6 22  1  0  0  0
 22 24  1  0  0  0
 24 25  2  0  0  0
 25 26  1  0  0  0
 26 27  2  0  0  0
 27 28  1  0  0  0
 28 29  1  0  0  0
 29 30  1  0  0  0
 29 31  1  0  0  0
 29 32  1  0  0  0
 32 33  2  0  0  0
 32 34  1  0  0  0
 34 35  1  0  0  0
 35 36  2  0  0  0
  6  7  2  0  0  0
 12 13  2  0  0  0
 13 14  1  0  0  0
 14 15  2  0  0  0
 14 16  1  0  0  0
 16 17  1  0  0  0
 16 18  1  0  0  0
 16 19  1  0  0  0
 15 10  1  0  0  0
  7  1  1  0  0  0
 36 24  1  0  0  0
 35 27  1  0  0  0
  8  9  1  0  0  0
 22 23  1  0  0  0
 34 37  1  0  0  0
M  END
> <minimizedAffinity>
-9.39891

> <CNNscore>
0.3284648061

> <CNNaffinity>
7.2484068871

> <CNN_VS>
2.3808465004

> <CNNaffinity_variance>
0.2868131995

$$$$
[H]c1nc(N([H])c2c([H])c([H])c(P(=O)(C([H])([H])[H])C([H])([H])[H])c([H])c2OC([H])([H])[H])nc(N([H])c2c([H])c([H])c([H])c([H])c2S(=O)(=O)C([H])(C([H])([H])[H])C([H])([H])[H])c1Cl


 35 37  0  0  0  0  0  0  0  0999 V2000
  -85.8108   33.2282   -1.8960 C   0  0  0  0  0  0  0  0  0  0  0  0
  -84.7057   33.4414   -1.1841 N   0  0  0  0  0  0  0  0  0  0  0  0
  -84.4165   32.7631   -0.0711 C   0  0  0  0  0  0  0  0  0  0  0  0
  -85.2777   31.7948    0.3867 C   0  0  0  0  0  0  0  0  0  0  0  0
  -84.8966   30.9062    1.8469 Cl  0  0  0  0  0  0  0  0  0  0  0  0
  -86.4492   31.5586   -0.3550 C   0  0  0  0  0  0  0  0  0  0  0  0
  -86.6439   32.2761   -1.4336 N   0  0  0  0  0  0  0  0  0  0  0  0
  -86.1021   33.9494   -3.0651 N   0  0  0  0  0  0  0  0  0  0  0  0
  -85.2355   34.1433   -3.6775 H   0  0  0  0  0  0  0  0  0  0  0  0
  -88.0768   33.5994   -4.3902 C   0  0  0  0  0  0  0  0  0  0  0  0
  -89.2746   34.0402   -4.8870 C   0  0  0  0  0  0  0  0  0  0  0  0
  -89.8039   35.2742   -4.6177 C   0  0  0  0  0  0  0  0  0  0  0  0
  -89.0652   36.0934   -3.7984 C   0  0  0  0  0  0  0  0  0  0  0  0
  -87.8342   35.6885   -3.2653 C   0  0  0  0  0  0  0  0  0  0  0  0
  -87.3221   34.4459   -3.5486 C   0  0  0  0  0  0  0  0  0  0  0  0
  -91.3688   35.8094   -5.2858 P   0  0  0  0  0  0  0  0  0  0  0  0
  -91.1723   36.1958   -7.0635 C   0  0  0  0  0  0  0  0  0  0  0  0
  -92.6376   34.5286   -5.1059 C   0  0  0  0  0  0  0  0  0  0  0  0
  -91.8516   37.0695   -4.5698 O   0  0  0  0  0  0  0  0  0  0  0  0
  -88.4562   31.2033   -4.5067 C   0  0  0  0  0  0  0  0  0  0  0  0
  -87.6106   32.3153   -4.7201 O   0  0  0  0  0  0  0  0  0  0  0  0
  -87.3031   30.5540    0.1448 N   0  0  0  0  0  0  0  0  0  0  0  0
  -86.9652   30.0585    1.0055 H   0  0  0  0  0  0  0  0  0  0  0  0
  -88.5495   30.1499   -0.3689 C   0  0  0  0  0  0  0  0  0  0  0  0
  -89.6281   30.9682   -0.6097 C   0  0  0  0  0  0  0  0  0  0  0  0
  -90.8462   30.4902   -1.1075 C   0  0  0  0  0  0  0  0  0  0  0  0
  -91.0141   29.1698   -1.3776 C   0  0  0  0  0  0  0  0  0  0  0  0
  -89.9275   28.3372   -1.1362 C   0  0  0  0  0  0  0  0  0  0  0  0
  -88.7160   28.7683   -0.6488 C   0  0  0  0  0  0  0  0  0  0  0  0
  -87.4002   27.6503   -0.3831 S   0  0  0  0  0  0  0  0  0  0  0  0
  -87.5332   26.4040   -1.2429 O   0  0  0  0  0  0  0  0  0  0  0  0
  -86.0750   28.3514   -0.6733 O   0  0  0  0  0  0  0  0  0  0  0  0
  -87.3034   27.1796    1.3257 C   0  0  0  0  0  0  0  0  0  0  0  0
  -85.9397   27.5254    1.8502 C   0  0  0  0  0  0  0  0  0  0  0  0
  -88.4450   27.7060    2.1536 C   0  0  0  0  0  0  0  0  0  0  0  0
 20 21  1  0  0  0
 21 10  1  0  0  0
 10 11  2  0  0  0
 11 12  1  0  0  0
 12 13  2  0  0  0
 13 14  1  0  0  0
 14 15  2  0  0  0
 15  8  1  0  0  0
  8  1  1  0  0  0
  1  2  2  0  0  0
  2  3  1  0  0  0
  3  4  2  0  0  0
  4  5  1  0  0  0
  4  6  1  0  0  0
  6 22  1  0  0  0
 22 24  1  0  0  0
 24 25  2  0  0  0
 25 26  1  0  0  0
 26 27  2  0  0  0
 27 28  1  0  0  0
 28 29  2  0  0  0
 29 30  1  0  0  0
 30 31  2  0  0  0
 30 32  2  0  0  0
 30 33  1  0  0  0
 33 34  1  0  0  0
 33 35  1  0  0  0
  6  7  2  0  0  0
 12 16  1  0  0  0
 16 17  1  0  0  0
 16 18  1  0  0  0
 16 19  2  0  0  0
 15 10  1  0  0  0
  7  1  1  0  0  0
 29 24  1  0  0  0
  8  9  1  0  0  0
 22 23  1  0  0  0
M  END
> <minimizedAffinity>
-7.22938

> <CNNscore>
0.5555270910

> <CNNaffinity>
7.1427268982

> <CNN_VS>
3.9679782391

> <CNNaffinity_variance>
0.1563841552

$$$$
[H]c1nc(N([H])c2c([H])c([H])c(P(=O)(C([H])([H])[H])C([H])([H])[H])c([H])c2OC([H])([H])[H])nc(N([H])c2c([H])c([H])c([H])c([H])c2S(=O)(=O)C([H])(C([H])([H])[H])C([H])([H])[H])c1Cl


 35 37  0  0  0  0  0  0  0  0999 V2000
  -86.1356   32.4513   -0.5493 C   0  0  0  0  0  0  0  0  0  0  0  0
  -85.0018   32.7479    0.0831 N   0  0  0  0  0  0  0  0  0  0  0  0
  -84.2609   31.8333    0.7134 C   0  0  0  0  0  0  0  0  0  0  0  0
  -84.6591   30.5180    0.7284 C   0  0  0  0  0  0  0  0  0  0  0  0
  -83.6859   29.3200    1.5557 Cl  0  0  0  0  0  0  0  0  0  0  0  0
  -85.8548   30.1897    0.0645 C   0  0  0  0  0  0  0  0  0  0  0  0
  -86.5114   31.1580   -0.5250 N   0  0  0  0  0  0  0  0  0  0  0  0
  -86.9049   33.4238   -1.2082 N   0  0  0  0  0  0  0  0  0  0  0  0
  -86.5738   34.4331   -1.0207 H   0  0  0  0  0  0  0  0  0  0  0  0
  -88.1408   34.2152   -3.1119 C   0  0  0  0  0  0  0  0  0  0  0  0
  -89.2079   34.1216   -3.9652 C   0  0  0  0  0  0  0  0  0  0  0  0
  -90.1847   33.1672   -3.8626 C   0  0  0  0  0  0  0  0  0  0  0  0
  -90.0570   32.2665   -2.8328 C   0  0  0  0  0  0  0  0  0  0  0  0
  -88.9836   32.3205   -1.9337 C   0  0  0  0  0  0  0  0  0  0  0  0
  -88.0149   33.2866   -2.0554 C   0  0  0  0  0  0  0  0  0  0  0  0
  -91.5591   33.0806   -4.9963 P   0  0  0  0  0  0  0  0  0  0  0  0
  -91.0405   33.7155   -6.6322 C   0  0  0  0  0  0  0  0  0  0  0  0
  -92.1482   31.3787   -5.1930 C   0  0  0  0  0  0  0  0  0  0  0  0
  -92.7199   33.9370   -4.4936 O   0  0  0  0  0  0  0  0  0  0  0  0
  -87.0771   35.8517   -4.5573 C   0  0  0  0  0  0  0  0  0  0  0  0
  -87.1845   35.2290   -3.2933 O   0  0  0  0  0  0  0  0  0  0  0  0
  -86.2253   28.8297    0.0984 N   0  0  0  0  0  0  0  0  0  0  0  0
  -85.5768   28.1961    0.6262 H   0  0  0  0  0  0  0  0  0  0  0  0
  -87.3597   28.2319   -0.4817 C   0  0  0  0  0  0  0  0  0  0  0  0
  -87.7382   28.3271   -1.8003 C   0  0  0  0  0  0  0  0  0  0  0  0
  -88.8934   27.7169   -2.3033 C   0  0  0  0  0  0  0  0  0  0  0  0
  -89.7039   26.9912   -1.4904 C   0  0  0  0  0  0  0  0  0  0  0  0
  -89.3269   26.8911   -0.1562 C   0  0  0  0  0  0  0  0  0  0  0  0
  -88.2008   27.4749    0.3752 C   0  0  0  0  0  0  0  0  0  0  0  0
  -87.7994   27.2893    2.0653 S   0  0  0  0  0  0  0  0  0  0  0  0
  -86.6576   26.3076    2.2720 O   0  0  0  0  0  0  0  0  0  0  0  0
  -87.4352   28.6518    2.6507 O   0  0  0  0  0  0  0  0  0  0  0  0
  -89.2123   26.7544    2.9974 C   0  0  0  0  0  0  0  0  0  0  0  0
  -88.9600   25.3666    3.5118 C   0  0  0  0  0  0  0  0  0  0  0  0
  -89.6416   27.7435    4.0476 C   0  0  0  0  0  0  0  0  0  0  0  0
 20 21  1  0  0  0
 21 10  1  0  0  0
 10 11  2  0  0  0
 11 12  1  0  0  0
 12 13  2  0  0  0
 13 14  1  0  0  0
 14 15  2  0  0  0
 15  8  1  0  0  0
  8  1  1  0  0  0
  1  2  2  0  0  0
  2  3  1  0  0  0
  3  4  2  0  0  0
  4  5  1  0  0  0
  4  6  1  0  0  0
  6 22  1  0  0  0
 22 24  1  0  0  0
 24 25  2  0  0  0
 25 26  1  0  0  0
 26 27  2  0  0  0
 27 28  1  0  0  0
 28 29  2  0  0  0
 29 30  1  0  0  0
 30 31  2  0  0  0
 30 32  2  0  0  0
 30 33  1  0  0  0
 33 34  1  0  0  0
 33 35  1  0  0  0
  6  7  2  0  0  0
 12 16  1  0  0  0
 16 17  1  0  0  0
 16 18  1  0  0  0
 16 19  2  0  0  0
 15 10  1  0  0  0
  7  1  1  0  0  0
 29 24  1  0  0  0
  8  9  1  0  0  0
 22 23  1  0  0  0
M  END
> <minimizedAffinity>
-7.06745

> <CNNscore>
0.3427885175

> <CNNaffinity>
7.1142144203

> <CNN_VS>
2.4386711121

> <CNNaffinity_variance>
0.2389697731

$$$$
[H]c1nc(N([H])c2c([H])c([H])c(P(=O)(C([H])([H])[H])C([H])([H])[H])c([H])c2OC([H])([H])[H])nc(N([H])c2c([H])c([H])c([H])c([H])c2S(=O)(=O)C([H])(C([H])([H])[H])C([H])([H])[H])c1Cl


 35 37  0  0  0  0  0  0  0  0999 V2000
  -86.1437   33.3650   -2.3014 C   0  0  0  0  0  0  0  0  0  0  0  0
  -85.0235   33.5159   -1.5974 N   0  0  0  0  0  0  0  0  0  0  0  0
  -84.7729   32.8354   -0.4763 C   0  0  0  0  0  0  0  0  0  0  0  0
  -85.6924   31.9310   -0.0015 C   0  0  0  0  0  0  0  0  0  0  0  0
  -85.3618   31.0395    1.4692 Cl  0  0  0  0  0  0  0  0  0  0  0  0
  -86.8806   31.7610   -0.7347 C   0  0  0  0  0  0  0  0  0  0  0  0
  -87.0341   32.4750   -1.8223 N   0  0  0  0  0  0  0  0  0  0  0  0
  -86.3940   34.0877   -3.4791 N   0  0  0  0  0  0  0  0  0  0  0  0
  -85.5431   34.6529   -3.8254 H   0  0  0  0  0  0  0  0  0  0  0  0
  -87.7109   35.3454   -5.0481 C   0  0  0  0  0  0  0  0  0  0  0  0
  -88.8298   35.4856   -5.8253 C   0  0  0  0  0  0  0  0  0  0  0  0
  -89.8336   34.5564   -5.8912 C   0  0  0  0  0  0  0  0  0  0  0  0
  -89.6784   33.4295   -5.1204 C   0  0  0  0  0  0  0  0  0  0  0  0
  -88.5520   33.2396   -4.3088 C   0  0  0  0  0  0  0  0  0  0  0  0
  -87.5569   34.1850   -4.2580 C   0  0  0  0  0  0  0  0  0  0  0  0
  -91.2755   34.7783   -6.9176 P   0  0  0  0  0  0  0  0  0  0  0  0
  -92.3912   36.0050   -6.1439 C   0  0  0  0  0  0  0  0  0  0  0  0
  -90.8259   35.3634   -8.5723 C   0  0  0  0  0  0  0  0  0  0  0  0
  -92.0350   33.4608   -7.0625 O   0  0  0  0  0  0  0  0  0  0  0  0
  -87.0410   37.6091   -4.4775 C   0  0  0  0  0  0  0  0  0  0  0  0
  -86.7300   36.3519   -5.0428 O   0  0  0  0  0  0  0  0  0  0  0  0
  -87.7949   30.8205   -0.2174 N   0  0  0  0  0  0  0  0  0  0  0  0
  -87.6228   30.5178    0.7721 H   0  0  0  0  0  0  0  0  0  0  0  0
  -88.9069   30.2536   -0.8677 C   0  0  0  0  0  0  0  0  0  0  0  0
  -90.0135   30.9344   -1.3180 C   0  0  0  0  0  0  0  0  0  0  0  0
  -91.0926   30.2982   -1.9429 C   0  0  0  0  0  0  0  0  0  0  0  0
  -91.0888   28.9534   -2.1328 C   0  0  0  0  0  0  0  0  0  0  0  0
  -89.9730   28.2592   -1.6798 C   0  0  0  0  0  0  0  0  0  0  0  0
  -88.8941   28.8477   -1.0624 C   0  0  0  0  0  0  0  0  0  0  0  0
  -87.5282   27.8966   -0.5317 S   0  0  0  0  0  0  0  0  0  0  0  0
  -87.6006   26.4669   -1.0424 O   0  0  0  0  0  0  0  0  0  0  0  0
  -86.2365   28.5600   -1.0042 O   0  0  0  0  0  0  0  0  0  0  0  0
  -87.4140   27.8844    1.2397 C   0  0  0  0  0  0  0  0  0  0  0  0
  -88.7727   27.6036    1.8138 C   0  0  0  0  0  0  0  0  0  0  0  0
  -86.3179   26.9933    1.7593 C   0  0  0  0  0  0  0  0  0  0  0  0
 20 21  1  0  0  0
 21 10  1  0  0  0
 10 11  2  0  0  0
 11 12  1  0  0  0
 12 13  2  0  0  0
 13 14  1  0  0  0
 14 15  2  0  0  0
 15  8  1  0  0  0
  8  1  1  0  0  0
  1  2  2  0  0  0
  2  3  1  0  0  0
  3  4  2  0  0  0
  4  5  1  0  0  0
  4  6  1  0  0  0
  6 22  1  0  0  0
 22 24  1  0  0  0
 24 25  2  0  0  0
 25 26  1  0  0  0
 26 27  2  0  0  0
 27 28  1  0  0  0
 28 29  2  0  0  0
 29 30  1  0  0  0
 30 31  2  0  0  0
 30 32  2  0  0  0
 30 33  1  0  0  0
 33 34  1  0  0  0
 33 35  1  0  0  0
  6  7  2  0  0  0
 12 16  1  0  0  0
 16 17  1  0  0  0
 16 18  1  0  0  0
 16 19  2  0  0  0
 15 10  1  0  0  0
  7  1  1  0  0  0
 29 24  1  0  0  0
  8  9  1  0  0  0
 22 23  1  0  0  0
M  END
> <minimizedAffinity>
-7.35837

> <CNNscore>
0.3212067783

> <CNNaffinity>
6.7732133865

> <CNN_VS>
2.1756019592

> <CNNaffinity_variance>
0.2171021700

$$$$
[H]c1nc(N([H])c2c([H])c([H])c(P(=O)(C([H])([H])[H])C([H])([H])[H])c([H])c2OC([H])([H])[H])nc(N([H])c2c([H])c([H])c([H])c([H])c2S(=O)(=O)C([H])(C([H])([H])[H])C([H])([H])[H])c1Cl


 35 37  0  0  0  0  0  0  0  0999 V2000
  -88.3496   33.2446   -2.1647 C   0  0  0  0  0  0  0  0  0  0  0  0
  -87.4157   34.1117   -2.5510 N   0  0  0  0  0  0  0  0  0  0  0  0
  -86.1684   34.0958   -2.0749 C   0  0  0  0  0  0  0  0  0  0  0  0
  -85.8004   33.1546   -1.1435 C   0  0  0  0  0  0  0  0  0  0  0  0
  -84.1639   33.1355   -0.5204 Cl  0  0  0  0  0  0  0  0  0  0  0  0
  -86.7765   32.2320   -0.7260 C   0  0  0  0  0  0  0  0  0  0  0  0
  -87.9726   32.3290   -1.2515 N   0  0  0  0  0  0  0  0  0  0  0  0
  -89.6580   33.2731   -2.6740 N   0  0  0  0  0  0  0  0  0  0  0  0
  -90.4066   32.9894   -1.9511 H   0  0  0  0  0  0  0  0  0  0  0  0
  -91.1913   32.8332   -4.4721 C   0  0  0  0  0  0  0  0  0  0  0  0
  -91.6865   33.1214   -5.7161 C   0  0  0  0  0  0  0  0  0  0  0  0
  -91.2131   34.1322   -6.5096 C   0  0  0  0  0  0  0  0  0  0  0  0
  -90.1811   34.8817   -5.9986 C   0  0  0  0  0  0  0  0  0  0  0  0
  -89.6402   34.6263   -4.7314 C   0  0  0  0  0  0  0  0  0  0  0  0
  -90.1306   33.6071   -3.9521 C   0  0  0  0  0  0  0  0  0  0  0  0
  -91.8872   34.4742   -8.1254 P   0  0  0  0  0  0  0  0  0  0  0  0
  -93.5120   33.6499   -8.2946 C   0  0  0  0  0  0  0  0  0  0  0  0
  -92.1075   36.2533   -8.3872 C   0  0  0  0  0  0  0  0  0  0  0  0
  -90.9598   33.9383   -9.2145 O   0  0  0  0  0  0  0  0  0  0  0  0
  -91.3774   30.4485   -4.0510 C   0  0  0  0  0  0  0  0  0  0  0  0
  -91.7396   31.7754   -3.7267 O   0  0  0  0  0  0  0  0  0  0  0  0
  -86.3576   31.2799    0.2259 N   0  0  0  0  0  0  0  0  0  0  0  0
  -85.8158   31.6604    1.0397 H   0  0  0  0  0  0  0  0  0  0  0  0
  -86.5888   29.8917    0.2140 C   0  0  0  0  0  0  0  0  0  0  0  0
  -87.3813   29.2120   -0.6810 C   0  0  0  0  0  0  0  0  0  0  0  0
  -87.5783   27.8274   -0.6199 C   0  0  0  0  0  0  0  0  0  0  0  0
  -86.9813   27.0846    0.3478 C   0  0  0  0  0  0  0  0  0  0  0  0
  -86.1789   27.7656    1.2558 C   0  0  0  0  0  0  0  0  0  0  0  0
  -85.9605   29.1232    1.2286 C   0  0  0  0  0  0  0  0  0  0  0  0
  -84.9280   29.8954    2.4073 S   0  0  0  0  0  0  0  0  0  0  0  0
  -85.3279   31.3415    2.6500 O   0  0  0  0  0  0  0  0  0  0  0  0
  -84.9775   29.1085    3.7151 O   0  0  0  0  0  0  0  0  0  0  0  0
  -83.2281   29.8314    1.8998 C   0  0  0  0  0  0  0  0  0  0  0  0
  -82.6696   28.4788    2.2359 C   0  0  0  0  0  0  0  0  0  0  0  0
  -83.0167   30.2594    0.4723 C   0  0  0  0  0  0  0  0  0  0  0  0
 20 21  1  0  0  0
 21 10  1  0  0  0
 10 11  2  0  0  0
 11 12  1  0  0  0
 12 13  2  0  0  0
 13 14  1  0  0  0
 14 15  2  0  0  0
 15  8  1  0  0  0
  8  1  1  0  0  0
  1  2  2  0  0  0
  2  3  1  0  0  0
  3  4  2  0  0  0
  4  5  1  0  0  0
  4  6  1  0  0  0
  6 22  1  0  0  0
 22 24  1  0  0  0
 24 25  2  0  0  0
 25 26  1  0  0  0
 26 27  2  0  0  0
 27 28  1  0  0  0
 28 29  2  0  0  0
 29 30  1  0  0  0
 30 31  2  0  0  0
 30 32  2  0  0  0
 30 33  1  0  0  0
 33 34  1  0  0  0
 33 35  1  0  0  0
  6  7  2  0  0  0
 12 16  1  0  0  0
 16 17  1  0  0  0
 16 18  1  0  0  0
 16 19  2  0  0  0
 15 10  1  0  0  0
  7  1  1  0  0  0
 29 24  1  0  0  0
  8  9  1  0  0  0
 22 23  1  0  0  0
M  END
> <minimizedAffinity>
-7.63783

> <CNNscore>
0.2535924017

> <CNNaffinity>
6.5343093872

> <CNN_VS>
1.6570512056

> <CNNaffinity_variance>
0.2446175069

$$$$
[H]c1nc(N([H])c2c([H])c([H])c(P(=O)(C([H])([H])[H])C([H])([H])[H])c([H])c2OC([H])([H])[H])nc(N([H])c2c([H])c([H])c([H])c([H])c2S(=O)(=O)C([H])(C([H])([H])[H])C([H])([H])[H])c1Cl


 35 37  0  0  0  0  0  0  0  0999 V2000
  -89.1450   32.4305   -1.9623 C   0  0  0  0  0  0  0  0  0  0  0  0
  -88.5813   33.5430   -2.4293 N   0  0  0  0  0  0  0  0  0  0  0  0
  -87.2878   33.8278   -2.2608 C   0  0  0  0  0  0  0  0  0  0  0  0
  -86.4750   32.9539   -1.5792 C   0  0  0  0  0  0  0  0  0  0  0  0
  -84.7786   33.3294   -1.3592 Cl  0  0  0  0  0  0  0  0  0  0  0  0
  -87.0566   31.7745   -1.0801 C   0  0  0  0  0  0  0  0  0  0  0  0
  -88.3346   31.5851   -1.2969 N   0  0  0  0  0  0  0  0  0  0  0  0
  -90.5072   32.1439   -2.1471 N   0  0  0  0  0  0  0  0  0  0  0  0
  -91.1641   32.8475   -1.6603 H   0  0  0  0  0  0  0  0  0  0  0  0
  -91.5461   29.9766   -2.1111 C   0  0  0  0  0  0  0  0  0  0  0  0
  -92.1602   28.9364   -2.7564 C   0  0  0  0  0  0  0  0  0  0  0  0
  -92.4061   28.9135   -4.1035 C   0  0  0  0  0  0  0  0  0  0  0  0
  -92.0005   30.0134   -4.8201 C   0  0  0  0  0  0  0  0  0  0  0  0
  -91.3681   31.1027   -4.2060 C   0  0  0  0  0  0  0  0  0  0  0  0
  -91.1315   31.1045   -2.8530 C   0  0  0  0  0  0  0  0  0  0  0  0
  -93.2094   27.5373   -4.9050 P   0  0  0  0  0  0  0  0  0  0  0  0
  -92.7381   27.5021   -6.6727 C   0  0  0  0  0  0  0  0  0  0  0  0
  -92.7369   25.9618   -4.1456 C   0  0  0  0  0  0  0  0  0  0  0  0
  -94.7277   27.6795   -4.8144 O   0  0  0  0  0  0  0  0  0  0  0  0
  -90.7117   28.7697   -0.1756 C   0  0  0  0  0  0  0  0  0  0  0  0
  -91.3344   29.9140   -0.7231 O   0  0  0  0  0  0  0  0  0  0  0  0
  -86.1882   30.9023   -0.3922 N   0  0  0  0  0  0  0  0  0  0  0  0
  -85.2776   31.3207   -0.0819 H   0  0  0  0  0  0  0  0  0  0  0  0
  -86.4051   29.5498   -0.0692 C   0  0  0  0  0  0  0  0  0  0  0  0
  -87.0926   28.6365   -0.8336 C   0  0  0  0  0  0  0  0  0  0  0  0
  -87.2832   27.3073   -0.4379 C   0  0  0  0  0  0  0  0  0  0  0  0
  -86.7859   26.8578    0.7432 C   0  0  0  0  0  0  0  0  0  0  0  0
  -86.0900   27.7760    1.5208 C   0  0  0  0  0  0  0  0  0  0  0  0
  -85.8814   29.0885    1.1668 C   0  0  0  0  0  0  0  0  0  0  0  0
  -84.9861   30.1721    2.2041 S   0  0  0  0  0  0  0  0  0  0  0  0
  -85.4288   31.6159    2.0323 O   0  0  0  0  0  0  0  0  0  0  0  0
  -85.1586   29.7376    3.6579 O   0  0  0  0  0  0  0  0  0  0  0  0
  -83.2424   30.0498    1.8946 C   0  0  0  0  0  0  0  0  0  0  0  0
  -82.7897   28.6514    2.2015 C   0  0  0  0  0  0  0  0  0  0  0  0
  -82.8428   30.5531    0.5335 C   0  0  0  0  0  0  0  0  0  0  0  0
 20 21  1  0  0  0
 21 10  1  0  0  0
 10 11  2  0  0  0
 11 12  1  0  0  0
 12 13  2  0  0  0
 13 14  1  0  0  0
 14 15  2  0  0  0
 15  8  1  0  0  0
  8  1  1  0  0  0
  1  2  2  0  0  0
  2  3  1  0  0  0
  3  4  2  0  0  0
  4  5  1  0  0  0
  4  6  1  0  0  0
  6 22  1  0  0  0
 22 24  1  0  0  0
 24 25  2  0  0  0
 25 26  1  0  0  0
 26 27  2  0  0  0
 27 28  1  0  0  0
 28 29  2  0  0  0
 29 30  1  0  0  0
 30 31  2  0  0  0
 30 32  2  0  0  0
 30 33  1  0  0  0
 33 34  1  0  0  0
 33 35  1  0  0  0
  6  7  2  0  0  0
 12 16  1  0  0  0
 16 17  1  0  0  0
 16 18  1  0  0  0
 16 19  2  0  0  0
 15 10  1  0  0  0
  7  1  1  0  0  0
 29 24  1  0  0  0
  8  9  1  0  0  0
 22 23  1  0  0  0
M  END
> <minimizedAffinity>
-7.89147

> <CNNscore>
0.2268761843

> <CNNaffinity>
6.5538201332

> <CNN_VS>
1.4869056940

> <CNNaffinity_variance>
0.3788332343

$$$$
[H]c1nc(N([H])c2c([H])c([H])c(P(=O)(C([H])([H])[H])C([H])([H])[H])c([H])c2OC([H])([H])[H])nc(N([H])c2c([H])c([H])c([H])c([H])c2S(=O)(=O)C([H])(C([H])([H])[H])C([H])([H])[H])c1Cl


 35 37  0  0  0  0  0  0  0  0999 V2000
  -87.4068   26.9359   -0.4423 C   0  0  0  0  0  0  0  0  0  0  0  0
  -86.9001   26.3339    0.6321 N   0  0  0  0  0  0  0  0  0  0  0  0
  -86.3994   27.0048    1.6722 C   0  0  0  0  0  0  0  0  0  0  0  0
  -86.3921   28.3792    1.6641 C   0  0  0  0  0  0  0  0  0  0  0  0
  -85.7348   29.2572    3.0294 Cl  0  0  0  0  0  0  0  0  0  0  0  0
  -86.9240   29.0289    0.5358 C   0  0  0  0  0  0  0  0  0  0  0  0
  -87.3919   28.2828   -0.4341 N   0  0  0  0  0  0  0  0  0  0  0  0
  -87.9302   26.2173   -1.5293 N   0  0  0  0  0  0  0  0  0  0  0  0
  -87.2220   26.0733   -2.3301 H   0  0  0  0  0  0  0  0  0  0  0  0
  -90.1440   26.4548   -2.4351 C   0  0  0  0  0  0  0  0  0  0  0  0
  -91.4030   25.9624   -2.6548 C   0  0  0  0  0  0  0  0  0  0  0  0
  -91.8257   24.7320   -2.2273 C   0  0  0  0  0  0  0  0  0  0  0  0
  -90.9092   23.9725   -1.5409 C   0  0  0  0  0  0  0  0  0  0  0  0
  -89.6092   24.4316   -1.2908 C   0  0  0  0  0  0  0  0  0  0  0  0
  -89.2063   25.6695   -1.7291 C   0  0  0  0  0  0  0  0  0  0  0  0
  -93.4758   24.1284   -2.5349 P   0  0  0  0  0  0  0  0  0  0  0  0
  -93.4092   22.3399   -2.9159 C   0  0  0  0  0  0  0  0  0  0  0  0
  -94.5499   24.3772   -1.0973 C   0  0  0  0  0  0  0  0  0  0  0  0
  -94.0945   24.8523   -3.7294 O   0  0  0  0  0  0  0  0  0  0  0  0
  -90.7558   28.7672   -2.8559 C   0  0  0  0  0  0  0  0  0  0  0  0
  -89.7969   27.7307   -2.9113 O   0  0  0  0  0  0  0  0  0  0  0  0
  -86.9030   30.4383    0.5691 N   0  0  0  0  0  0  0  0  0  0  0  0
  -87.7665   30.8957    0.9509 H   0  0  0  0  0  0  0  0  0  0  0  0
  -85.8623   31.2934    0.1611 C   0  0  0  0  0  0  0  0  0  0  0  0
  -84.5898   31.3232    0.6815 C   0  0  0  0  0  0  0  0  0  0  0  0
  -83.6089   32.2167    0.2350 C   0  0  0  0  0  0  0  0  0  0  0  0
  -83.8820   33.1093   -0.7514 C   0  0  0  0  0  0  0  0  0  0  0  0
  -85.1667   33.0845   -1.2817 C   0  0  0  0  0  0  0  0  0  0  0  0
  -86.1565   32.2227   -0.8707 C   0  0  0  0  0  0  0  0  0  0  0  0
  -87.7433   32.2564   -1.6006 S   0  0  0  0  0  0  0  0  0  0  0  0
  -88.1362   30.9010   -2.1651 O   0  0  0  0  0  0  0  0  0  0  0  0
  -88.7671   32.7119   -0.5632 O   0  0  0  0  0  0  0  0  0  0  0  0
  -87.8234   33.4763   -2.8877 C   0  0  0  0  0  0  0  0  0  0  0  0
  -87.6743   32.7934   -4.2165 C   0  0  0  0  0  0  0  0  0  0  0  0
  -89.0228   34.3790   -2.7783 C   0  0  0  0  0  0  0  0  0  0  0  0
 20 21  1  0  0  0
 21 10  1  0  0  0
 10 11  2  0  0  0
 11 12  1  0  0  0
 12 13  2  0  0  0
 13 14  1  0  0  0
 14 15  2  0  0  0
 15  8  1  0  0  0
  8  1  1  0  0  0
  1  2  2  0  0  0
  2  3  1  0  0  0
  3  4  2  0  0  0
  4  5  1  0  0  0
  4  6  1  0  0  0
  6 22  1  0  0  0
 22 24  1  0  0  0
 24 25  2  0  0  0
 25 26  1  0  0  0
 26 27  2  0  0  0
 27 28  1  0  0  0
 28 29  2  0  0  0
 29 30  1  0  0  0
 30 31  2  0  0  0
 30 32  2  0  0  0
 30 33  1  0  0  0
 33 34  1  0  0  0
 33 35  1  0  0  0
  6  7  2  0  0  0
 12 16  1  0  0  0
 16 17  1  0  0  0
 16 18  1  0  0  0
 16 19  2  0  0  0
 15 10  1  0  0  0
  7  1  1  0  0  0
 29 24  1  0  0  0
  8  9  1  0  0  0
 22 23  1  0  0  0
M  END
> <minimizedAffinity>
-7.87845

> <CNNscore>
0.2165561914

> <CNNaffinity>
6.3197984695

> <CNN_VS>
1.3685914278

> <CNNaffinity_variance>
0.6467256546

$$$$
[H]c1nc(N([H])c2c([H])c([H])c(P(=O)(C([H])([H])[H])C([H])([H])[H])c([H])c2OC([H])([H])[H])nc(N([H])c2c([H])c([H])c([H])c([H])c2S(=O)(=O)C([H])(C([H])([H])[H])C([H])([H])[H])c1Cl


 35 37  0  0  0  0  0  0  0  0999 V2000
  -88.9469   32.6213   -1.9271 C   0  0  0  0  0  0  0  0  0  0  0  0
  -88.3342   33.7222   -2.3585 N   0  0  0  0  0  0  0  0  0  0  0  0
  -87.0339   33.9537   -2.1630 C   0  0  0  0  0  0  0  0  0  0  0  0
  -86.2659   33.0340   -1.4898 C   0  0  0  0  0  0  0  0  0  0  0  0
  -84.5605   33.3396   -1.2344 Cl  0  0  0  0  0  0  0  0  0  0  0  0
  -86.8995   31.8663   -1.0281 C   0  0  0  0  0  0  0  0  0  0  0  0
  -88.1799   31.7305   -1.2693 N   0  0  0  0  0  0  0  0  0  0  0  0
  -90.3157   32.3910   -2.1399 N   0  0  0  0  0  0  0  0  0  0  0  0
  -90.9543   33.0930   -1.6272 H   0  0  0  0  0  0  0  0  0  0  0  0
  -91.4437   31.7877   -4.1749 C   0  0  0  0  0  0  0  0  0  0  0  0
  -92.0855   30.8628   -4.9549 C   0  0  0  0  0  0  0  0  0  0  0  0
  -92.3013   29.5645   -4.5764 C   0  0  0  0  0  0  0  0  0  0  0  0
  -91.8346   29.2010   -3.3363 C   0  0  0  0  0  0  0  0  0  0  0  0
  -91.1720   30.1104   -2.5012 C   0  0  0  0  0  0  0  0  0  0  0  0
  -90.9662   31.4082   -2.9012 C   0  0  0  0  0  0  0  0  0  0  0  0
  -93.1424   28.3909   -5.6239 P   0  0  0  0  0  0  0  0  0  0  0  0
  -93.8687   27.0651   -4.5929 C   0  0  0  0  0  0  0  0  0  0  0  0
  -94.4679   29.1820   -6.5724 C   0  0  0  0  0  0  0  0  0  0  0  0
  -92.1613   27.7539   -6.6063 O   0  0  0  0  0  0  0  0  0  0  0  0
  -90.2274   33.3634   -5.5665 C   0  0  0  0  0  0  0  0  0  0  0  0
  -91.2663   33.1000   -4.6455 O   0  0  0  0  0  0  0  0  0  0  0  0
  -86.0760   30.9460   -0.3477 N   0  0  0  0  0  0  0  0  0  0  0  0
  -85.1471   31.3166   -0.0311 H   0  0  0  0  0  0  0  0  0  0  0  0
  -86.3587   29.6022   -0.0395 C   0  0  0  0  0  0  0  0  0  0  0  0
  -87.0671   28.7244   -0.8261 C   0  0  0  0  0  0  0  0  0  0  0  0
  -87.3243   27.4023   -0.4444 C   0  0  0  0  0  0  0  0  0  0  0  0
  -86.8745   26.9243    0.7445 C   0  0  0  0  0  0  0  0  0  0  0  0
  -86.1577   27.8066    1.5445 C   0  0  0  0  0  0  0  0  0  0  0  0
  -85.8844   29.1109    1.2048 C   0  0  0  0  0  0  0  0  0  0  0  0
  -84.9673   30.1481    2.2702 S   0  0  0  0  0  0  0  0  0  0  0  0
  -85.3672   31.6071    2.1232 O   0  0  0  0  0  0  0  0  0  0  0  0
  -85.1644   29.6907    3.7137 O   0  0  0  0  0  0  0  0  0  0  0  0
  -83.2253   29.9819    1.9721 C   0  0  0  0  0  0  0  0  0  0  0  0
  -82.8227   28.5562    2.2166 C   0  0  0  0  0  0  0  0  0  0  0  0
  -82.7939   30.5351    0.6405 C   0  0  0  0  0  0  0  0  0  0  0  0
 20 21  1  0  0  0
 21 10  1  0  0  0
 10 11  2  0  0  0
 11 12  1  0  0  0
 12 13  2  0  0  0
 13 14  1  0  0  0
 14 15  2  0  0  0
 15  8  1  0  0  0
  8  1  1  0  0  0
  1  2  2  0  0  0
  2  3  1  0  0  0
  3  4  2  0  0  0
  4  5  1  0  0  0
  4  6  1  0  0  0
  6 22  1  0  0  0
 22 24  1  0  0  0
 24 25  2  0  0  0
 25 26  1  0  0  0
 26 27  2  0  0  0
 27 28  1  0  0  0
 28 29  2  0  0  0
 29 30  1  0  0  0
 30 31  2  0  0  0
 30 32  2  0  0  0
 30 33  1  0  0  0
 33 34  1  0  0  0
 33 35  1  0  0  0
  6  7  2  0  0  0
 12 16  1  0  0  0
 16 17  1  0  0  0
 16 18  1  0  0  0
 16 19  2  0  0  0
 15 10  1  0  0  0
  7  1  1  0  0  0
 29 24  1  0  0  0
  8  9  1  0  0  0
 22 23  1  0  0  0
M  END
> <minimizedAffinity>
-8.26984

> <CNNscore>
0.2067465931

> <CNNaffinity>
6.3701248169

> <CNN_VS>
1.3170015812

> <CNNaffinity_variance>
0.4787739217

$$$$
[H]c1nc(N([H])c2c([H])c([H])c(P(=O)(C([H])([H])[H])C([H])([H])[H])c([H])c2OC([H])([H])[H])nc(N([H])c2c([H])c([H])c([H])c([H])c2S(=O)(=O)C([H])(C([H])([H])[H])C([H])([H])[H])c1Cl


 35 37  0  0  0  0  0  0  0  0999 V2000
  -86.1184   27.3009    1.9814 C   0  0  0  0  0  0  0  0  0  0  0  0
  -85.0593   27.4634    2.7722 N   0  0  0  0  0  0  0  0  0  0  0  0
  -84.1037   28.3640    2.5304 C   0  0  0  0  0  0  0  0  0  0  0  0
  -84.1878   29.1748    1.4239 C   0  0  0  0  0  0  0  0  0  0  0  0
  -82.9332   30.3553    1.1086 Cl  0  0  0  0  0  0  0  0  0  0  0  0
  -85.3009   29.0144    0.5793 C   0  0  0  0  0  0  0  0  0  0  0  0
  -86.1854   28.1033    0.9015 N   0  0  0  0  0  0  0  0  0  0  0  0
  -87.1162   26.3494    2.2480 N   0  0  0  0  0  0  0  0  0  0  0  0
  -86.9782   25.8333    3.1851 H   0  0  0  0  0  0  0  0  0  0  0  0
  -89.4740   25.8869    2.1816 C   0  0  0  0  0  0  0  0  0  0  0  0
  -90.6005   25.5252    1.4918 C   0  0  0  0  0  0  0  0  0  0  0  0
  -90.6150   25.2364    0.1532 C   0  0  0  0  0  0  0  0  0  0  0  0
  -89.4129   25.3240   -0.5065 C   0  0  0  0  0  0  0  0  0  0  0  0
  -88.2328   25.6897    0.1546 C   0  0  0  0  0  0  0  0  0  0  0  0
  -88.2414   25.9752    1.4981 C   0  0  0  0  0  0  0  0  0  0  0  0
  -92.1058   24.7690   -0.7075 P   0  0  0  0  0  0  0  0  0  0  0  0
  -91.6678   23.8863   -2.2494 C   0  0  0  0  0  0  0  0  0  0  0  0
  -93.1439   23.6857    0.3079 C   0  0  0  0  0  0  0  0  0  0  0  0
  -92.9193   26.0081   -1.0767 O   0  0  0  0  0  0  0  0  0  0  0  0
  -90.5656   27.0342    4.0231 C   0  0  0  0  0  0  0  0  0  0  0  0
  -89.5530   26.1658    3.5569 O   0  0  0  0  0  0  0  0  0  0  0  0
  -85.3526   29.8686   -0.5413 N   0  0  0  0  0  0  0  0  0  0  0  0
  -84.9682   29.4710   -1.4327 H   0  0  0  0  0  0  0  0  0  0  0  0
  -85.8645   31.1782   -0.6023 C   0  0  0  0  0  0  0  0  0  0  0  0
  -85.2016   32.3233   -0.2278 C   0  0  0  0  0  0  0  0  0  0  0  0
  -85.7836   33.5945   -0.3010 C   0  0  0  0  0  0  0  0  0  0  0  0
  -87.0542   33.7498   -0.7545 C   0  0  0  0  0  0  0  0  0  0  0  0
  -87.7300   32.5961   -1.1346 C   0  0  0  0  0  0  0  0  0  0  0  0
  -87.1931   31.3312   -1.0780 C   0  0  0  0  0  0  0  0  0  0  0  0
  -88.1140   29.9360   -1.5851 S   0  0  0  0  0  0  0  0  0  0  0  0
  -87.2643   28.9519   -2.3724 O   0  0  0  0  0  0  0  0  0  0  0  0
  -88.7117   29.2517   -0.3578 O   0  0  0  0  0  0  0  0  0  0  0  0
  -89.5129   30.4214   -2.5642 C   0  0  0  0  0  0  0  0  0  0  0  0
  -89.0376   30.8097   -3.9345 C   0  0  0  0  0  0  0  0  0  0  0  0
  -90.6281   29.4106   -2.5510 C   0  0  0  0  0  0  0  0  0  0  0  0
 20 21  1  0  0  0
 21 10  1  0  0  0
 10 11  2  0  0  0
 11 12  1  0  0  0
 12 13  2  0  0  0
 13 14  1  0  0  0
 14 15  2  0  0  0
 15  8  1  0  0  0
  8  1  1  0  0  0
  1  2  2  0  0  0
  2  3  1  0  0  0
  3  4  2  0  0  0
  4  5  1  0  0  0
  4  6  1  0  0  0
  6 22  1  0  0  0
 22 24  1  0  0  0
 24 25  2  0  0  0
 25 26  1  0  0  0
 26 27  2  0  0  0
 27 28  1  0  0  0
 28 29  2  0  0  0
 29 30  1  0  0  0
 30 31  2  0  0  0
 30 32  2  0  0  0
 30 33  1  0  0  0
 33 34  1  0  0  0
 33 35  1  0  0  0
  6  7  2  0  0  0
 12 16  1  0  0  0
 16 17  1  0  0  0
 16 18  1  0  0  0
 16 19  2  0  0  0
 15 10  1  0  0  0
  7  1  1  0  0  0
 29 24  1  0  0  0
  8  9  1  0  0  0
 22 23  1  0  0  0
M  END
> <minimizedAffinity>
-7.31722

> <CNNscore>
0.1942043602

> <CNNaffinity>
6.8117895126

> <CNN_VS>
1.3228791952

> <CNNaffinity_variance>
0.1705974042

$$$$
[H]c1nc(N([H])c2c([H])c([H])c(P(=O)(C([H])([H])[H])C([H])([H])[H])c([H])c2OC([H])([H])[H])nc(N([H])c2c([H])c([H])c([H])c([H])c2S(=O)(=O)C([H])(C([H])([H])[H])C([H])([H])[H])c1Cl


 35 37  0  0  0  0  0  0  0  0999 V2000
  -88.0983   26.1986   -0.7756 C   0  0  0  0  0  0  0  0  0  0  0  0
  -88.2604   25.8059    0.4866 N   0  0  0  0  0  0  0  0  0  0  0  0
  -87.7921   26.4976    1.5282 C   0  0  0  0  0  0  0  0  0  0  0  0
  -87.1078   27.6714    1.3219 C   0  0  0  0  0  0  0  0  0  0  0  0
  -86.4943   28.5770    2.6896 Cl  0  0  0  0  0  0  0  0  0  0  0  0
  -86.9288   28.0987   -0.0062 C   0  0  0  0  0  0  0  0  0  0  0  0
  -87.4255   27.3508   -0.9602 N   0  0  0  0  0  0  0  0  0  0  0  0
  -88.5964   25.4609   -1.8617 N   0  0  0  0  0  0  0  0  0  0  0  0
  -87.8634   25.2839   -2.6330 H   0  0  0  0  0  0  0  0  0  0  0  0
  -90.8104   25.7592   -2.7487 C   0  0  0  0  0  0  0  0  0  0  0  0
  -92.0712   25.2848   -2.9960 C   0  0  0  0  0  0  0  0  0  0  0  0
  -92.4974   24.0323   -2.6426 C   0  0  0  0  0  0  0  0  0  0  0  0
  -91.5825   23.2300   -2.0044 C   0  0  0  0  0  0  0  0  0  0  0  0
  -90.2808   23.6693   -1.7288 C   0  0  0  0  0  0  0  0  0  0  0  0
  -89.8745   24.9300   -2.0924 C   0  0  0  0  0  0  0  0  0  0  0  0
  -94.1497   23.4533   -2.9839 P   0  0  0  0  0  0  0  0  0  0  0  0
  -94.3512   21.7599   -2.3207 C   0  0  0  0  0  0  0  0  0  0  0  0
  -95.3966   24.5270   -2.2257 C   0  0  0  0  0  0  0  0  0  0  0  0
  -94.4004   23.4134   -4.4903 O   0  0  0  0  0  0  0  0  0  0  0  0
  -91.4188   28.0926   -3.0388 C   0  0  0  0  0  0  0  0  0  0  0  0
  -90.4598   27.0604   -3.1478 O   0  0  0  0  0  0  0  0  0  0  0  0
  -86.2268   29.3098   -0.1747 N   0  0  0  0  0  0  0  0  0  0  0  0
  -85.1845   29.2478   -0.0730 H   0  0  0  0  0  0  0  0  0  0  0  0
  -86.7587   30.5789   -0.4700 C   0  0  0  0  0  0  0  0  0  0  0  0
  -88.0329   30.8368   -0.9182 C   0  0  0  0  0  0  0  0  0  0  0  0
  -88.4874   32.1287   -1.2084 C   0  0  0  0  0  0  0  0  0  0  0  0
  -87.6692   33.2019   -1.0556 C   0  0  0  0  0  0  0  0  0  0  0  0
  -86.3798   32.9480   -0.6029 C   0  0  0  0  0  0  0  0  0  0  0  0
  -85.8967   31.6948   -0.3070 C   0  0  0  0  0  0  0  0  0  0  0  0
  -84.2617   31.4694    0.2655 S   0  0  0  0  0  0  0  0  0  0  0  0
  -83.4247   30.6624   -0.7136 O   0  0  0  0  0  0  0  0  0  0  0  0
  -83.6189   32.8330    0.5087 O   0  0  0  0  0  0  0  0  0  0  0  0
  -84.2493   30.6692    1.8500 C   0  0  0  0  0  0  0  0  0  0  0  0
  -83.0010   29.8435    1.9694 C   0  0  0  0  0  0  0  0  0  0  0  0
  -84.4867   31.6153    2.9963 C   0  0  0  0  0  0  0  0  0  0  0  0
 20 21  1  0  0  0
 21 10  1  0  0  0
 10 11  2  0  0  0
 11 12  1  0  0  0
 12 13  2  0  0  0
 13 14  1  0  0  0
 14 15  2  0  0  0
 15  8  1  0  0  0
  8  1  1  0  0  0
  1  2  2  0  0  0
  2  3  1  0  0  0
  3  4  2  0  0  0
  4  5  1  0  0  0
  4  6  1  0  0  0
  6 22  1  0  0  0
 22 24  1  0  0  0
 24 25  2  0  0  0
 25 26  1  0  0  0
 26 27  2  0  0  0
 27 28  1  0  0  0
 28 29  2  0  0  0
 29 30  1  0  0  0
 30 31  2  0  0  0
 30 32  2  0  0  0
 30 33  1  0  0  0
 33 34  1  0  0  0
 33 35  1  0  0  0
  6  7  2  0  0  0
 12 16  1  0  0  0
 16 17  1  0  0  0
 16 18  1  0  0  0
 16 19  2  0  0  0
 15 10  1  0  0  0
  7  1  1  0  0  0
 29 24  1  0  0  0
  8  9  1  0  0  0
 22 23  1  0  0  0
M  END
> <minimizedAffinity>
-7.55334

> <CNNscore>
0.1168399677

> <CNNaffinity>
6.2379274368

> <CNN_VS>
0.7288392186

> <CNNaffinity_variance>
0.5181773901

$$$$
[H]Oc1c([H])c(C([H])([H])[H])c2c(oc(=O)c3c(O[H])c([H])c(OC([H])([H])[H])c([H])c32)c1O[H]


 24 26  0  0  0  0  0  0  0  0999 V2000
  -86.6285   32.5564   -0.8170 C   0  0  0  0  0  0  0  0  0  0  0  0
  -87.8857   32.0699   -1.0642 C   0  0  0  0  0  0  0  0  0  0  0  0
  -88.2818   30.8360   -0.6401 C   0  0  0  0  0  0  0  0  0  0  0  0
  -89.5576   30.3222   -0.8820 O   0  0  0  0  0  0  0  0  0  0  0  0
  -87.3772   30.0695    0.0569 C   0  0  0  0  0  0  0  0  0  0  0  0
  -86.0875   30.5403    0.3243 C   0  0  0  0  0  0  0  0  0  0  0  0
  -85.6951   31.7742   -0.1022 C   0  0  0  0  0  0  0  0  0  0  0  0
  -85.2117   29.7269    1.0255 C   0  0  0  0  0  0  0  0  0  0  0  0
  -83.9439   30.1470    1.3114 C   0  0  0  0  0  0  0  0  0  0  0  0
  -83.3633   31.4238    0.9739 C   0  0  0  0  0  0  0  0  0  0  0  0
  -83.1450   29.2174    2.0344 C   0  0  0  0  0  0  0  0  0  0  0  0
  -83.5946   27.9877    2.4256 C   0  0  0  0  0  0  0  0  0  0  0  0
  -82.7813   27.1171    3.1270 O   0  0  0  0  0  0  0  0  0  0  0  0
  -84.8650   27.6166    2.1179 C   0  0  0  0  0  0  0  0  0  0  0  0
  -85.3614   26.3786    2.4959 O   0  0  0  0  0  0  0  0  0  0  0  0
  -85.6856   28.4725    1.4197 C   0  0  0  0  0  0  0  0  0  0  0  0
  -86.9119   28.0722    1.1428 O   0  0  0  0  0  0  0  0  0  0  0  0
  -87.7578   28.8031    0.4926 C   0  0  0  0  0  0  0  0  0  0  0  0
  -88.9109   28.4075    0.2417 O   0  0  0  0  0  0  0  0  0  0  0  0
  -90.2716   30.8040   -1.3748 H   0  0  0  0  0  0  0  0  0  0  0  0
  -83.1636   26.2234    3.3903 H   0  0  0  0  0  0  0  0  0  0  0  0
  -86.3014   26.0717    2.2829 H   0  0  0  0  0  0  0  0  0  0  0  0
  -86.7142   34.3441   -2.4623 C   0  0  0  0  0  0  0  0  0  0  0  0
  -86.2481   33.8023   -1.2529 O   0  0  0  0  0  0  0  0  0  0  0  0
 23 24  1  0  0  0
 24  1  1  0  0  0
  1  2  2  0  0  0
  2  3  1  0  0  0
  3  4  1  0  0  0
  3  5  2  0  0  0
  5  6  1  0  0  0
  6  7  2  0  0  0
  6  8  1  0  0  0
  8  9  2  0  0  0
  9 10  1  0  0  0
  9 11  1  0  0  0
 11 12  2  0  0  0
 12 13  1  0  0  0
 12 14  1  0  0  0
 14 15  1  0  0  0
 14 16  2  0  0  0
 16 17  1  0  0  0
 17 18  1  0  0  0
 18 19  2  0  0  0
  7  1  1  0  0  0
 16  8  1  0  0  0
 18  5  1  0  0  0
  4 20  1  0  0  0
 13 21  1  0  0  0
 15 22  1  0  0  0
M  END
> <minimizedAffinity>
-9.52284

> <CNNscore>
0.8862224817

> <CNNaffinity>
6.0958452225

> <CNN_VS>
5.4022750854

> <CNNaffinity_variance>
0.1054303423

$$$$
[H]Oc1c([H])c(C([H])([H])[H])c2c(oc(=O)c3c(O[H])c([H])c(OC([H])([H])[H])c([H])c32)c1O[H]


 24 26  0  0  0  0  0  0  0  0999 V2000
  -83.8496   31.3715    0.4465 C   0  0  0  0  0  0  0  0  0  0  0  0
  -82.8970   30.6579    1.1259 C   0  0  0  0  0  0  0  0  0  0  0  0
  -83.1611   29.4395    1.6783 C   0  0  0  0  0  0  0  0  0  0  0  0
  -82.2048   28.6970    2.3744 O   0  0  0  0  0  0  0  0  0  0  0  0
  -84.4294   28.9263    1.5388 C   0  0  0  0  0  0  0  0  0  0  0  0
  -85.4215   29.6319    0.8501 C   0  0  0  0  0  0  0  0  0  0  0  0
  -85.1537   30.8502    0.3000 C   0  0  0  0  0  0  0  0  0  0  0  0
  -86.6852   29.0737    0.7422 C   0  0  0  0  0  0  0  0  0  0  0  0
  -87.6834   29.7262    0.0763 C   0  0  0  0  0  0  0  0  0  0  0  0
  -87.5819   30.9994   -0.5944 C   0  0  0  0  0  0  0  0  0  0  0  0
  -88.9333   29.0469    0.0395 C   0  0  0  0  0  0  0  0  0  0  0  0
  -89.1415   27.8280    0.6211 C   0  0  0  0  0  0  0  0  0  0  0  0
  -90.3745   27.2057    0.5595 O   0  0  0  0  0  0  0  0  0  0  0  0
  -88.1157   27.2188    1.2714 C   0  0  0  0  0  0  0  0  0  0  0  0
  -88.2834   25.9820    1.8748 O   0  0  0  0  0  0  0  0  0  0  0  0
  -86.8831   27.8266    1.3413 C   0  0  0  0  0  0  0  0  0  0  0  0
  -85.9150   27.1994    1.9818 O   0  0  0  0  0  0  0  0  0  0  0  0
  -84.7233   27.6873    2.1018 C   0  0  0  0  0  0  0  0  0  0  0  0
  -83.8230   27.0797    2.7096 O   0  0  0  0  0  0  0  0  0  0  0  0
  -81.2681   28.9888    2.5231 H   0  0  0  0  0  0  0  0  0  0  0  0
  -90.4725   26.3081    1.0055 H   0  0  0  0  0  0  0  0  0  0  0  0
  -87.5411   25.5018    2.3662 H   0  0  0  0  0  0  0  0  0  0  0  0
  -84.5122   33.3218   -0.8450 C   0  0  0  0  0  0  0  0  0  0  0  0
  -83.5642   32.5979   -0.1029 O   0  0  0  0  0  0  0  0  0  0  0  0
 23 24  1  0  0  0
 24  1  1  0  0  0
  1  2  2  0  0  0
  2  3  1  0  0  0
  3  4  1  0  0  0
  3  5  2  0  0  0
  5  6  1  0  0  0
  6  7  2  0  0  0
  6  8  1  0  0  0
  8  9  2  0  0  0
  9 10  1  0  0  0
  9 11  1  0  0  0
 11 12  2  0  0  0
 12 13  1  0  0  0
 12 14  1  0  0  0
 14 15  1  0  0  0
 14 16  2  0  0  0
 16 17  1  0  0  0
 17 18  1  0  0  0
 18 19  2  0  0  0
  7  1  1  0  0  0
 16  8  1  0  0  0
 18  5  1  0  0  0
  4 20  1  0  0  0
 13 21  1  0  0  0
 15 22  1  0  0  0
M  END
> <minimizedAffinity>
-9.40970

> <CNNscore>
0.7702461481

> <CNNaffinity>
5.8608107567

> <CNN_VS>
4.5142669678

> <CNNaffinity_variance>
0.0588757694

$$$$
[H]Oc1c([H])c(C([H])([H])[H])c2c(oc(=O)c3c(O[H])c([H])c(OC([H])([H])[H])c([H])c32)c1O[H]


 24 26  0  0  0  0  0  0  0  0999 V2000
  -86.1872   33.0745   -1.1436 C   0  0  0  0  0  0  0  0  0  0  0  0
  -84.8843   33.4572   -0.9589 C   0  0  0  0  0  0  0  0  0  0  0  0
  -83.9845   32.6715   -0.3011 C   0  0  0  0  0  0  0  0  0  0  0  0
  -82.6531   33.0432   -0.1023 O   0  0  0  0  0  0  0  0  0  0  0  0
  -84.4165   31.4598    0.1852 C   0  0  0  0  0  0  0  0  0  0  0  0
  -85.7403   31.0430    0.0110 C   0  0  0  0  0  0  0  0  0  0  0  0
  -86.6371   31.8318   -0.6465 C   0  0  0  0  0  0  0  0  0  0  0  0
  -86.1271   29.8156    0.5249 C   0  0  0  0  0  0  0  0  0  0  0  0
  -87.4087   29.3675    0.3757 C   0  0  0  0  0  0  0  0  0  0  0  0
  -88.4820   30.0420   -0.3131 C   0  0  0  0  0  0  0  0  0  0  0  0
  -87.6772   28.0937    0.9506 C   0  0  0  0  0  0  0  0  0  0  0  0
  -86.7346   27.3544    1.6082 C   0  0  0  0  0  0  0  0  0  0  0  0
  -87.0421   26.1207    2.1511 O   0  0  0  0  0  0  0  0  0  0  0  0
  -85.4728   27.8436    1.7290 C   0  0  0  0  0  0  0  0  0  0  0  0
  -84.4861   27.1262    2.3877 O   0  0  0  0  0  0  0  0  0  0  0  0
  -85.1525   29.0703    1.1942 C   0  0  0  0  0  0  0  0  0  0  0  0
  -83.9152   29.5067    1.3339 O   0  0  0  0  0  0  0  0  0  0  0  0
  -83.5166   30.6450    0.8669 C   0  0  0  0  0  0  0  0  0  0  0  0
  -82.3445   31.0389    1.0086 O   0  0  0  0  0  0  0  0  0  0  0  0
  -82.2563   33.8963   -0.4178 H   0  0  0  0  0  0  0  0  0  0  0  0
  -86.3093   25.6183    2.6253 H   0  0  0  0  0  0  0  0  0  0  0  0
  -83.5378   27.4614    2.4952 H   0  0  0  0  0  0  0  0  0  0  0  0
  -88.3889   33.4636   -2.0983 C   0  0  0  0  0  0  0  0  0  0  0  0
  -87.0790   33.8803   -1.8089 O   0  0  0  0  0  0  0  0  0  0  0  0
 23 24  1  0  0  0
 24  1  1  0  0  0
  1  2  2  0  0  0
  2  3  1  0  0  0
  3  4  1  0  0  0
  3  5  2  0  0  0
  5  6  1  0  0  0
  6  7  2  0  0  0
  6  8  1  0  0  0
  8  9  2  0  0  0
  9 10  1  0  0  0
  9 11  1  0  0  0
 11 12  2  0  0  0
 12 13  1  0  0  0
 12 14  1  0  0  0
 14 15  1  0  0  0
 14 16  2  0  0  0
 16 17  1  0  0  0
 17 18  1  0  0  0
 18 19  2  0  0  0
  7  1  1  0  0  0
 16  8  1  0  0  0
 18  5  1  0  0  0
  4 20  1  0  0  0
 13 21  1  0  0  0
 15 22  1  0  0  0
M  END
> <minimizedAffinity>
-9.39294

> <CNNscore>
0.7684466839

> <CNNaffinity>
5.7378034592

> <CNN_VS>
4.4091959000

> <CNNaffinity_variance>
0.0350130871

$$$$
[H]Oc1c([H])c(C([H])([H])[H])c2c(oc(=O)c3c(O[H])c([H])c(OC([H])([H])[H])c([H])c32)c1O[H]


 24 26  0  0  0  0  0  0  0  0999 V2000
  -83.4128   30.4781    1.2399 C   0  0  0  0  0  0  0  0  0  0  0  0
  -83.0742   29.3362    1.9179 C   0  0  0  0  0  0  0  0  0  0  0  0
  -83.9622   28.3203    2.1153 C   0  0  0  0  0  0  0  0  0  0  0  0
  -83.6370   27.1494    2.8034 O   0  0  0  0  0  0  0  0  0  0  0  0
  -85.2333   28.4639    1.6104 C   0  0  0  0  0  0  0  0  0  0  0  0
  -85.6068   29.6179    0.9137 C   0  0  0  0  0  0  0  0  0  0  0  0
  -84.7164   30.6318    0.7193 C   0  0  0  0  0  0  0  0  0  0  0  0
  -86.9015   29.7163    0.4298 C   0  0  0  0  0  0  0  0  0  0  0  0
  -87.3086   30.8235   -0.2584 C   0  0  0  0  0  0  0  0  0  0  0  0
  -86.5056   31.9755   -0.5889 C   0  0  0  0  0  0  0  0  0  0  0  0
  -88.6615   30.8008   -0.6993 C   0  0  0  0  0  0  0  0  0  0  0  0
  -89.5095   29.7556   -0.4630 C   0  0  0  0  0  0  0  0  0  0  0  0
  -90.8171   29.7781   -0.9112 O   0  0  0  0  0  0  0  0  0  0  0  0
  -89.0561   28.6756    0.2256 C   0  0  0  0  0  0  0  0  0  0  0  0
  -89.8826   27.5936    0.4868 O   0  0  0  0  0  0  0  0  0  0  0  0
  -87.7572   28.6395    0.6784 C   0  0  0  0  0  0  0  0  0  0  0  0
  -87.3584   27.5711    1.3420 O   0  0  0  0  0  0  0  0  0  0  0  0
  -86.1586   27.4423    1.8072 C   0  0  0  0  0  0  0  0  0  0  0  0
  -85.8014   26.4259    2.4304 O   0  0  0  0  0  0  0  0  0  0  0  0
  -82.7471   26.9612    3.2001 H   0  0  0  0  0  0  0  0  0  0  0  0
  -91.3987   28.9811   -0.7092 H   0  0  0  0  0  0  0  0  0  0  0  0
  -89.5767   26.7750    0.9962 H   0  0  0  0  0  0  0  0  0  0  0  0
  -82.6354   32.4277    0.0130 C   0  0  0  0  0  0  0  0  0  0  0  0
  -82.5039   31.4909    1.0515 O   0  0  0  0  0  0  0  0  0  0  0  0
 23 24  1  0  0  0
 24  1  1  0  0  0
  1  2  2  0  0  0
  2  3  1  0  0  0
  3  4  1  0  0  0
  3  5  2  0  0  0
  5  6  1  0  0  0
  6  7  2  0  0  0
  6  8  1  0  0  0
  8  9  2  0  0  0
  9 10  1  0  0  0
  9 11  1  0  0  0
 11 12  2  0  0  0
 12 13  1  0  0  0
 12 14  1  0  0  0
 14 15  1  0  0  0
 14 16  2  0  0  0
 16 17  1  0  0  0
 17 18  1  0  0  0
 18 19  2  0  0  0
  7  1  1  0  0  0
 16  8  1  0  0  0
 18  5  1  0  0  0
  4 20  1  0  0  0
 13 21  1  0  0  0
 15 22  1  0  0  0
M  END
> <minimizedAffinity>
-9.09590

> <CNNscore>
0.7594566345

> <CNNaffinity>
5.7972788811

> <CNN_VS>
4.4027819633

> <CNNaffinity_variance>
0.0953923315

$$$$
[H]Oc1c([H])c(C([H])([H])[H])c2c(oc(=O)c3c(O[H])c([H])c(OC([H])([H])[H])c([H])c32)c1O[H]


 24 26  0  0  0  0  0  0  0  0999 V2000
  -88.8140   28.4423    0.4633 C   0  0  0  0  0  0  0  0  0  0  0  0
  -88.3568   27.3485    1.1510 C   0  0  0  0  0  0  0  0  0  0  0  0
  -87.0695   27.2553    1.5912 C   0  0  0  0  0  0  0  0  0  0  0  0
  -86.5843   26.1497    2.2930 O   0  0  0  0  0  0  0  0  0  0  0  0
  -86.2174   28.3022    1.3276 C   0  0  0  0  0  0  0  0  0  0  0  0
  -86.6565   29.4313    0.6284 C   0  0  0  0  0  0  0  0  0  0  0  0
  -87.9441   29.5203    0.1892 C   0  0  0  0  0  0  0  0  0  0  0  0
  -85.7572   30.4566    0.3834 C   0  0  0  0  0  0  0  0  0  0  0  0
  -86.1432   31.5786   -0.2930 C   0  0  0  0  0  0  0  0  0  0  0  0
  -87.4618   31.8657   -0.8030 C   0  0  0  0  0  0  0  0  0  0  0  0
  -85.1248   32.5549   -0.4803 C   0  0  0  0  0  0  0  0  0  0  0  0
  -83.8462   32.4015   -0.0234 C   0  0  0  0  0  0  0  0  0  0  0  0
  -82.8895   33.3781   -0.2293 O   0  0  0  0  0  0  0  0  0  0  0  0
  -83.5118   31.2669    0.6453 C   0  0  0  0  0  0  0  0  0  0  0  0
  -82.2264   31.0709    1.1262 O   0  0  0  0  0  0  0  0  0  0  0  0
  -84.4534   30.2861    0.8571 C   0  0  0  0  0  0  0  0  0  0  0  0
  -84.0860   29.2011    1.5118 O   0  0  0  0  0  0  0  0  0  0  0  0
  -84.8966   28.2246    1.7609 C   0  0  0  0  0  0  0  0  0  0  0  0
  -84.5308   27.2092    2.3808 O   0  0  0  0  0  0  0  0  0  0  0  0
  -87.1264   25.3521    2.5266 H   0  0  0  0  0  0  0  0  0  0  0  0
  -81.9628   33.2133    0.1287 H   0  0  0  0  0  0  0  0  0  0  0  0
  -81.9449   30.2387    1.6275 H   0  0  0  0  0  0  0  0  0  0  0  0
  -91.1785   28.8006    0.9004 C   0  0  0  0  0  0  0  0  0  0  0  0
  -90.1147   28.5175    0.0277 O   0  0  0  0  0  0  0  0  0  0  0  0
 23 24  1  0  0  0
 24  1  1  0  0  0
  1  2  2  0  0  0
  2  3  1  0  0  0
  3  4  1  0  0  0
  3  5  2  0  0  0
  5  6  1  0  0  0
  6  7  2  0  0  0
  6  8  1  0  0  0
  8  9  2  0  0  0
  9 10  1  0  0  0
  9 11  1  0  0  0
 11 12  2  0  0  0
 12 13  1  0  0  0
 12 14  1  0  0  0
 14 15  1  0  0  0
 14 16  2  0  0  0
 16 17  1  0  0  0
 17 18  1  0  0  0
 18 19  2  0  0  0
  7  1  1  0  0  0
 16  8  1  0  0  0
 18  5  1  0  0  0
  4 20  1  0  0  0
 13 21  1  0  0  0
 15 22  1  0  0  0
M  END
> <minimizedAffinity>
-8.88494

> <CNNscore>
0.7439914346

> <CNNaffinity>
5.9595007896

> <CNN_VS>
4.4338173866

> <CNNaffinity_variance>
0.1969244480

$$$$
[H]Oc1c([H])c(C([H])([H])[H])c2c(oc(=O)c3c(O[H])c([H])c(OC([H])([H])[H])c([H])c32)c1O[H]


 24 26  0  0  0  0  0  0  0  0999 V2000
  -87.2033   27.6774    1.3585 C   0  0  0  0  0  0  0  0  0  0  0  0
  -86.2199   26.9944    2.0252 C   0  0  0  0  0  0  0  0  0  0  0  0
  -84.9578   27.4919    2.1631 C   0  0  0  0  0  0  0  0  0  0  0  0
  -83.9420   26.8118    2.8383 O   0  0  0  0  0  0  0  0  0  0  0  0
  -84.6817   28.7200    1.6090 C   0  0  0  0  0  0  0  0  0  0  0  0
  -85.6657   29.4399    0.9235 C   0  0  0  0  0  0  0  0  0  0  0  0
  -86.9261   28.9386    0.7870 C   0  0  0  0  0  0  0  0  0  0  0  0
  -85.3352   30.6703    0.3785 C   0  0  0  0  0  0  0  0  0  0  0  0
  -86.2650   31.4087   -0.2965 C   0  0  0  0  0  0  0  0  0  0  0  0
  -87.6483   31.0611   -0.5136 C   0  0  0  0  0  0  0  0  0  0  0  0
  -85.7980   32.6517   -0.8083 C   0  0  0  0  0  0  0  0  0  0  0  0
  -84.5155   33.0947   -0.6464 C   0  0  0  0  0  0  0  0  0  0  0  0
  -84.1068   34.3107   -1.1620 O   0  0  0  0  0  0  0  0  0  0  0  0
  -83.6277   32.3236    0.0343 C   0  0  0  0  0  0  0  0  0  0  0  0
  -82.3173   32.7352    0.2221 O   0  0  0  0  0  0  0  0  0  0  0  0
  -84.0202   31.1108    0.5526 C   0  0  0  0  0  0  0  0  0  0  0  0
  -83.1262   30.3946    1.2072 O   0  0  0  0  0  0  0  0  0  0  0  0
  -83.3974   29.2436    1.7309 C   0  0  0  0  0  0  0  0  0  0  0  0
  -82.5399   28.5832    2.3455 O   0  0  0  0  0  0  0  0  0  0  0  0
  -84.0514   25.9238    3.2674 H   0  0  0  0  0  0  0  0  0  0  0  0
  -83.1502   34.5883   -1.0135 H   0  0  0  0  0  0  0  0  0  0  0  0
  -81.6320   32.1856    0.7235 H   0  0  0  0  0  0  0  0  0  0  0  0
  -88.9304   26.1075    2.0390 C   0  0  0  0  0  0  0  0  0  0  0  0
  -88.4691   27.1592    1.2299 O   0  0  0  0  0  0  0  0  0  0  0  0
 23 24  1  0  0  0
 24  1  1  0  0  0
  1  2  2  0  0  0
  2  3  1  0  0  0
  3  4  1  0  0  0
  3  5  2  0  0  0
  5  6  1  0  0  0
  6  7  2  0  0  0
  6  8  1  0  0  0
  8  9  2  0  0  0
  9 10  1  0  0  0
  9 11  1  0  0  0
 11 12  2  0  0  0
 12 13  1  0  0  0
 12 14  1  0  0  0
 14 15  1  0  0  0
 14 16  2  0  0  0
 16 17  1  0  0  0
 17 18  1  0  0  0
 18 19  2  0  0  0
  7  1  1  0  0  0
 16  8  1  0  0  0
 18  5  1  0  0  0
  4 20  1  0  0  0
 13 21  1  0  0  0
 15 22  1  0  0  0
M  END
> <minimizedAffinity>
-9.59777

> <CNNscore>
0.6805142760

> <CNNaffinity>
5.7570204735

> <CNN_VS>
3.9177346230

> <CNNaffinity_variance>
0.0396116190

$$$$
[H]Oc1c([H])c(C([H])([H])[H])c2c(oc(=O)c3c(O[H])c([H])c(OC([H])([H])[H])c([H])c32)c1O[H]


 24 26  0  0  0  0  0  0  0  0999 V2000
  -83.9928   30.1655    1.3493 C   0  0  0  0  0  0  0  0  0  0  0  0
  -84.1266   28.8989    1.8556 C   0  0  0  0  0  0  0  0  0  0  0  0
  -85.2780   28.1814    1.7181 C   0  0  0  0  0  0  0  0  0  0  0  0
  -85.4344   26.8902    2.2266 O   0  0  0  0  0  0  0  0  0  0  0  0
  -86.3276   28.7635    1.0465 C   0  0  0  0  0  0  0  0  0  0  0  0
  -86.2194   30.0543    0.5187 C   0  0  0  0  0  0  0  0  0  0  0  0
  -85.0668   30.7688    0.6592 C   0  0  0  0  0  0  0  0  0  0  0  0
  -87.3078   30.5981   -0.1445 C   0  0  0  0  0  0  0  0  0  0  0  0
  -87.2457   31.8538   -0.6780 C   0  0  0  0  0  0  0  0  0  0  0  0
  -86.1092   32.7423   -0.6588 C   0  0  0  0  0  0  0  0  0  0  0  0
  -88.4306   32.2952   -1.3309 C   0  0  0  0  0  0  0  0  0  0  0  0
  -89.5605   31.5330   -1.4295 C   0  0  0  0  0  0  0  0  0  0  0  0
  -90.6891   32.0046   -2.0738 O   0  0  0  0  0  0  0  0  0  0  0  0
  -89.5719   30.2891   -0.8830 C   0  0  0  0  0  0  0  0  0  0  0  0
  -90.6968   29.4825   -0.9605 O   0  0  0  0  0  0  0  0  0  0  0  0
  -88.4561   29.8068   -0.2381 C   0  0  0  0  0  0  0  0  0  0  0  0
  -88.5104   28.5935    0.2774 O   0  0  0  0  0  0  0  0  0  0  0  0
  -87.5154   28.0519    0.9013 C   0  0  0  0  0  0  0  0  0  0  0  0
  -87.5862   26.9052    1.3801 O   0  0  0  0  0  0  0  0  0  0  0  0
  -84.7324   26.3944    2.7227 H   0  0  0  0  0  0  0  0  0  0  0  0
  -91.4942   31.4010   -2.1172 H   0  0  0  0  0  0  0  0  0  0  0  0
  -90.7383   28.5526   -0.5647 H   0  0  0  0  0  0  0  0  0  0  0  0
  -82.4267   31.8583    0.5801 C   0  0  0  0  0  0  0  0  0  0  0  0
  -82.8245   30.8726    1.4985 O   0  0  0  0  0  0  0  0  0  0  0  0
 23 24  1  0  0  0
 24  1  1  0  0  0
  1  2  2  0  0  0
  2  3  1  0  0  0
  3  4  1  0  0  0
  3  5  2  0  0  0
  5  6  1  0  0  0
  6  7  2  0  0  0
  6  8  1  0  0  0
  8  9  2  0  0  0
  9 10  1  0  0  0
  9 11  1  0  0  0
 11 12  2  0  0  0
 12 13  1  0  0  0
 12 14  1  0  0  0
 14 15  1  0  0  0
 14 16  2  0  0  0
 16 17  1  0  0  0
 17 18  1  0  0  0
 18 19  2  0  0  0
  7  1  1  0  0  0
 16  8  1  0  0  0
 18  5  1  0  0  0
  4 20  1  0  0  0
 13 21  1  0  0  0
 15 22  1  0  0  0
M  END
> <minimizedAffinity>
-8.64158

> <CNNscore>
0.6555181742

> <CNNaffinity>
5.7075014114

> <CNN_VS>
3.7413709164

> <CNNaffinity_variance>
0.1451161355

$$$$
[H]Oc1c([H])c(C([H])([H])[H])c2c(oc(=O)c3c(O[H])c([H])c(OC([H])([H])[H])c([H])c32)c1O[H]


 24 26  0  0  0  0  0  0  0  0999 V2000
  -84.3664   29.4543    1.3955 C   0  0  0  0  0  0  0  0  0  0  0  0
  -83.2236   30.2093    1.3470 C   0  0  0  0  0  0  0  0  0  0  0  0
  -83.1755   31.4106    0.7035 C   0  0  0  0  0  0  0  0  0  0  0  0
  -82.0214   32.1946    0.6425 O   0  0  0  0  0  0  0  0  0  0  0  0
  -84.3200   31.8629    0.0896 C   0  0  0  0  0  0  0  0  0  0  0  0
  -85.5009   31.1139    0.1233 C   0  0  0  0  0  0  0  0  0  0  0  0
  -85.5447   29.9129    0.7669 C   0  0  0  0  0  0  0  0  0  0  0  0
  -86.6255   31.6110   -0.5157 C   0  0  0  0  0  0  0  0  0  0  0  0
  -87.8005   30.9148   -0.5060 C   0  0  0  0  0  0  0  0  0  0  0  0
  -88.0475   29.6516    0.1455 C   0  0  0  0  0  0  0  0  0  0  0  0
  -88.8782   31.5332   -1.1998 C   0  0  0  0  0  0  0  0  0  0  0  0
  -88.7675   32.7375   -1.8359 C   0  0  0  0  0  0  0  0  0  0  0  0
  -89.8431   33.2999   -2.4979 O   0  0  0  0  0  0  0  0  0  0  0  0
  -87.5769   33.3919   -1.8158 C   0  0  0  0  0  0  0  0  0  0  0  0
  -87.4212   34.6160   -2.4478 O   0  0  0  0  0  0  0  0  0  0  0  0
  -86.4976   32.8440   -1.1614 C   0  0  0  0  0  0  0  0  0  0  0  0
  -85.3607   33.5136   -1.1662 O   0  0  0  0  0  0  0  0  0  0  0  0
  -84.2913   33.0832   -0.5800 C   0  0  0  0  0  0  0  0  0  0  0  0
  -83.2282   33.7303   -0.5953 O   0  0  0  0  0  0  0  0  0  0  0  0
  -81.1536   31.9475    1.0555 H   0  0  0  0  0  0  0  0  0  0  0  0
  -89.7060   34.1893   -2.9499 H   0  0  0  0  0  0  0  0  0  0  0  0
  -86.5493   35.1288   -2.4518 H   0  0  0  0  0  0  0  0  0  0  0  0
  -83.2717   27.7336    2.7188 C   0  0  0  0  0  0  0  0  0  0  0  0
  -84.3949   28.2461    2.0487 O   0  0  0  0  0  0  0  0  0  0  0  0
 23 24  1  0  0  0
 24  1  1  0  0  0
  1  2  2  0  0  0
  2  3  1  0  0  0
  3  4  1  0  0  0
  3  5  2  0  0  0
  5  6  1  0  0  0
  6  7  2  0  0  0
  6  8  1  0  0  0
  8  9  2  0  0  0
  9 10  1  0  0  0
  9 11  1  0  0  0
 11 12  2  0  0  0
 12 13  1  0  0  0
 12 14  1  0  0  0
 14 15  1  0  0  0
 14 16  2  0  0  0
 16 17  1  0  0  0
 17 18  1  0  0  0
 18 19  2  0  0  0
  7  1  1  0  0  0
 16  8  1  0  0  0
 18  5  1  0  0  0
  4 20  1  0  0  0
 13 21  1  0  0  0
 15 22  1  0  0  0
M  END
> <minimizedAffinity>
-9.64215

> <CNNscore>
0.6453328729

> <CNNaffinity>
5.6079258919

> <CNN_VS>
3.6189789772

> <CNNaffinity_variance>
0.0441627316

$$$$
[H]Oc1c([H])c(C([H])([H])[H])c2c(oc(=O)c3c(O[H])c([H])c(OC([H])([H])[H])c([H])c32)c1O[H]


 24 26  0  0  0  0  0  0  0  0999 V2000
  -87.5949   32.0108   -0.9749 C   0  0  0  0  0  0  0  0  0  0  0  0
  -86.7251   32.9931   -1.3709 C   0  0  0  0  0  0  0  0  0  0  0  0
  -85.4017   32.9643   -1.0437 C   0  0  0  0  0  0  0  0  0  0  0  0
  -84.4996   33.9552   -1.4370 O   0  0  0  0  0  0  0  0  0  0  0  0
  -84.9432   31.9078   -0.2921 C   0  0  0  0  0  0  0  0  0  0  0  0
  -85.8077   30.8906    0.1256 C   0  0  0  0  0  0  0  0  0  0  0  0
  -87.1305   30.9235   -0.2028 C   0  0  0  0  0  0  0  0  0  0  0  0
  -85.2974   29.8507    0.8861 C   0  0  0  0  0  0  0  0  0  0  0  0
  -86.1045   28.8351    1.3131 C   0  0  0  0  0  0  0  0  0  0  0  0
  -87.5126   28.6811    1.0396 C   0  0  0  0  0  0  0  0  0  0  0  0
  -85.4583   27.8307    2.0870 C   0  0  0  0  0  0  0  0  0  0  0  0
  -84.1265   27.8602    2.3917 C   0  0  0  0  0  0  0  0  0  0  0  0
  -83.5420   26.8610    3.1475 O   0  0  0  0  0  0  0  0  0  0  0  0
  -83.3653   28.8920    1.9421 C   0  0  0  0  0  0  0  0  0  0  0  0
  -82.0104   28.9607    2.2276 O   0  0  0  0  0  0  0  0  0  0  0  0
  -83.9337   29.8939    1.1892 C   0  0  0  0  0  0  0  0  0  0  0  0
  -83.1577   30.8763    0.7725 O   0  0  0  0  0  0  0  0  0  0  0  0
  -83.5970   31.8623    0.0601 C   0  0  0  0  0  0  0  0  0  0  0  0
  -82.8486   32.7796   -0.3239 O   0  0  0  0  0  0  0  0  0  0  0  0
  -84.7418   34.7505   -1.9787 H   0  0  0  0  0  0  0  0  0  0  0  0
  -82.5565   26.9325    3.3425 H   0  0  0  0  0  0  0  0  0  0  0  0
  -81.4160   29.7143    1.9085 H   0  0  0  0  0  0  0  0  0  0  0  0
  -89.6655   30.8968   -1.5929 C   0  0  0  0  0  0  0  0  0  0  0  0
  -88.9252   32.0577   -1.3144 O   0  0  0  0  0  0  0  0  0  0  0  0
 23 24  1  0  0  0
 24  1  1  0  0  0
  1  2  2  0  0  0
  2  3  1  0  0  0
  3  4  1  0  0  0
  3  5  2  0  0  0
  5  6  1  0  0  0
  6  7  2  0  0  0
  6  8  1  0  0  0
  8  9  2  0  0  0
  9 10  1  0  0  0
  9 11  1  0  0  0
 11 12  2  0  0  0
 12 13  1  0  0  0
 12 14  1  0  0  0
 14 15  1  0  0  0
 14 16  2  0  0  0
 16 17  1  0  0  0
 17 18  1  0  0  0
 18 19  2  0  0  0
  7  1  1  0  0  0
 16  8  1  0  0  0
 18  5  1  0  0  0
  4 20  1  0  0  0
 13 21  1  0  0  0
 15 22  1  0  0  0
M  END
> <minimizedAffinity>
-9.18445

> <CNNscore>
0.6256818175

> <CNNaffinity>
5.7131462097

> <CNN_VS>
3.5746116638

> <CNNaffinity_variance>
0.0369126722

$$$$
[H]c1nc(N([H])c2c([H])c([H])c([N+](=O)[O-])c([H])c2OC([H])([H])[H])nc(N([H])c2c([H])c([H])c([H])c([H])c2S(=O)(=O)C([H])(C([H])([H])[H])C([H])([H])[H])c1Cl


 34 36  0  0  0  0  0  0  0  0999 V2000
  -85.4509   33.1439   -1.8899 C   0  0  0  0  0  0  0  0  0  0  0  0
  -84.2366   33.4346   -1.4466 N   0  0  0  0  0  0  0  0  0  0  0  0
  -83.7071   32.9484   -0.3166 C   0  0  0  0  0  0  0  0  0  0  0  0
  -84.4541   32.0926    0.4447 C   0  0  0  0  0  0  0  0  0  0  0  0
  -83.7602   31.4595    1.9193 Cl  0  0  0  0  0  0  0  0  0  0  0  0
  -85.7444   31.7476    0.0289 C   0  0  0  0  0  0  0  0  0  0  0  0
  -86.1636   32.2859   -1.0999 N   0  0  0  0  0  0  0  0  0  0  0  0
  -86.0580   33.6339   -3.0823 N   0  0  0  0  0  0  0  0  0  0  0  0
  -85.5375   34.3974   -3.6187 H   0  0  0  0  0  0  0  0  0  0  0  0
  -88.3896   34.0446   -3.4415 C   0  0  0  0  0  0  0  0  0  0  0  0
  -89.6341   33.7063   -3.9251 C   0  0  0  0  0  0  0  0  0  0  0  0
  -89.8688   32.5397   -4.5938 C   0  0  0  0  0  0  0  0  0  0  0  0
  -88.8064   31.7024   -4.7706 C   0  0  0  0  0  0  0  0  0  0  0  0
  -87.5408   32.0413   -4.2814 C   0  0  0  0  0  0  0  0  0  0  0  0
  -87.2788   33.1995   -3.6104 C   0  0  0  0  0  0  0  0  0  0  0  0
  -91.1754   32.2633   -5.0602 N   0  0  0  0  0  0  0  0  0  0  0  0
  -91.8597   33.1805   -5.8050 O   0  0  0  0  0  0  0  0  0  0  0  0
  -91.7324   31.1799   -4.8041 O   0  0  0  0  0  0  0  0  0  0  0  0
  -88.3857   36.4760   -3.3996 C   0  0  0  0  0  0  0  0  0  0  0  0
  -88.1934   35.2383   -2.7681 O   0  0  0  0  0  0  0  0  0  0  0  0
  -86.4981   30.8626    0.8357 N   0  0  0  0  0  0  0  0  0  0  0  0
  -87.2583   31.3571    1.4084 H   0  0  0  0  0  0  0  0  0  0  0  0
  -86.4078   29.4870    1.0057 C   0  0  0  0  0  0  0  0  0  0  0  0
  -85.4610   28.8641    1.7761 C   0  0  0  0  0  0  0  0  0  0  0  0
  -85.4068   27.4658    1.9373 C   0  0  0  0  0  0  0  0  0  0  0  0
  -86.3295   26.6733    1.3069 C   0  0  0  0  0  0  0  0  0  0  0  0
  -87.2895   27.2783    0.5279 C   0  0  0  0  0  0  0  0  0  0  0  0
  -87.3279   28.6483    0.3806 C   0  0  0  0  0  0  0  0  0  0  0  0
  -88.5559   29.3218   -0.6181 S   0  0  0  0  0  0  0  0  0  0  0  0
  -89.1344   30.5992   -0.0830 O   0  0  0  0  0  0  0  0  0  0  0  0
  -88.0830   29.6152   -2.0342 O   0  0  0  0  0  0  0  0  0  0  0  0
  -89.9854   28.2225   -0.7260 C   0  0  0  0  0  0  0  0  0  0  0  0
  -91.1872   29.1722   -0.5677 C   0  0  0  0  0  0  0  0  0  0  0  0
  -90.0805   27.5333   -2.0393 C   0  0  0  0  0  0  0  0  0  0  0  0
 19 20  1  0  0  0
 20 10  1  0  0  0
 10 11  2  0  0  0
 11 12  1  0  0  0
 12 13  2  0  0  0
 13 14  1  0  0  0
 14 15  2  0  0  0
 15  8  1  0  0  0
  8  1  1  0  0  0
  1  2  2  0  0  0
  2  3  1  0  0  0
  3  4  2  0  0  0
  4  5  1  0  0  0
  4  6  1  0  0  0
  6 21  1  0  0  0
 21 23  1  0  0  0
 23 24  2  0  0  0
 24 25  1  0  0  0
 25 26  2  0  0  0
 26 27  1  0  0  0
 27 28  2  0  0  0
 28 29  1  0  0  0
 29 30  2  0  0  0
 29 31  2  0  0  0
 29 32  1  0  0  0
 32 33  1  0  0  0
 32 34  1  0  0  0
  6  7  2  0  0  0
 12 16  1  0  0  0
 16 17  1  0  0  0
 16 18  2  0  0  0
 15 10  1  0  0  0
  7  1  1  0  0  0
 28 23  1  0  0  0
  8  9  1  0  0  0
 21 22  1  0  0  0
M  CHG 1  16   1
M  CHG 1  17  -1
M  END
> <minimizedAffinity>
-7.77711

> <CNNscore>
0.6874862313

> <CNNaffinity>
7.3498306274

> <CNN_VS>
5.0529074669

> <CNNaffinity_variance>
0.1547129601

$$$$
[H]c1nc(N([H])c2c([H])c([H])c([N+](=O)[O-])c([H])c2OC([H])([H])[H])nc(N([H])c2c([H])c([H])c([H])c([H])c2S(=O)(=O)C([H])(C([H])([H])[H])C([H])([H])[H])c1Cl


 34 36  0  0  0  0  0  0  0  0999 V2000
  -86.6535   32.9652   -1.0153 C   0  0  0  0  0  0  0  0  0  0  0  0
  -86.4832   33.8848   -1.9537 N   0  0  0  0  0  0  0  0  0  0  0  0
  -87.4211   34.2451   -2.8392 C   0  0  0  0  0  0  0  0  0  0  0  0
  -88.6435   33.6343   -2.7876 C   0  0  0  0  0  0  0  0  0  0  0  0
  -89.8661   34.1066   -3.9448 Cl  0  0  0  0  0  0  0  0  0  0  0  0
  -88.8841   32.6545   -1.8185 C   0  0  0  0  0  0  0  0  0  0  0  0
  -87.8884   32.3795   -0.9984 N   0  0  0  0  0  0  0  0  0  0  0  0
  -85.6894   32.5476   -0.0524 N   0  0  0  0  0  0  0  0  0  0  0  0
  -85.0013   33.2839    0.3024 H   0  0  0  0  0  0  0  0  0  0  0  0
  -84.3761   30.9434    1.1458 C   0  0  0  0  0  0  0  0  0  0  0  0
  -84.1612   29.6980    1.6933 C   0  0  0  0  0  0  0  0  0  0  0  0
  -85.0819   28.6933    1.6147 C   0  0  0  0  0  0  0  0  0  0  0  0
  -86.2470   28.9705    0.9615 C   0  0  0  0  0  0  0  0  0  0  0  0
  -86.4701   30.2335    0.4038 C   0  0  0  0  0  0  0  0  0  0  0  0
  -85.5679   31.2544    0.4677 C   0  0  0  0  0  0  0  0  0  0  0  0
  -84.7874   27.4407    2.2025 N   0  0  0  0  0  0  0  0  0  0  0  0
  -83.5849   27.2200    2.8104 O   0  0  0  0  0  0  0  0  0  0  0  0
  -85.6149   26.5111    2.1803 O   0  0  0  0  0  0  0  0  0  0  0  0
  -82.3107   31.9770    0.3848 C   0  0  0  0  0  0  0  0  0  0  0  0
  -83.4161   31.9358    1.2475 O   0  0  0  0  0  0  0  0  0  0  0  0
  -90.1561   32.0354   -1.7878 N   0  0  0  0  0  0  0  0  0  0  0  0
  -90.9368   32.6547   -2.1845 H   0  0  0  0  0  0  0  0  0  0  0  0
  -90.5472   30.7838   -1.3296 C   0  0  0  0  0  0  0  0  0  0  0  0
  -90.2029   30.2656   -0.1086 C   0  0  0  0  0  0  0  0  0  0  0  0
  -90.6288   28.9967    0.3300 C   0  0  0  0  0  0  0  0  0  0  0  0
  -91.4221   28.2288   -0.4810 C   0  0  0  0  0  0  0  0  0  0  0  0
  -91.7798   28.7299   -1.7121 C   0  0  0  0  0  0  0  0  0  0  0  0
  -91.3538   29.9738   -2.1259 C   0  0  0  0  0  0  0  0  0  0  0  0
  -91.8399   30.5202   -3.6828 S   0  0  0  0  0  0  0  0  0  0  0  0
  -92.4954   31.8704   -3.6700 O   0  0  0  0  0  0  0  0  0  0  0  0
  -90.6899   30.6017   -4.6757 O   0  0  0  0  0  0  0  0  0  0  0  0
  -93.1068   29.4417   -4.3869 C   0  0  0  0  0  0  0  0  0  0  0  0
  -94.2691   30.4021   -4.6996 C   0  0  0  0  0  0  0  0  0  0  0  0
  -92.6661   28.7862   -5.6459 C   0  0  0  0  0  0  0  0  0  0  0  0
 19 20  1  0  0  0
 20 10  1  0  0  0
 10 11  2  0  0  0
 11 12  1  0  0  0
 12 13  2  0  0  0
 13 14  1  0  0  0
 14 15  2  0  0  0
 15  8  1  0  0  0
  8  1  1  0  0  0
  1  2  2  0  0  0
  2  3  1  0  0  0
  3  4  2  0  0  0
  4  5  1  0  0  0
  4  6  1  0  0  0
  6 21  1  0  0  0
 21 23  1  0  0  0
 23 24  2  0  0  0
 24 25  1  0  0  0
 25 26  2  0  0  0
 26 27  1  0  0  0
 27 28  2  0  0  0
 28 29  1  0  0  0
 29 30  2  0  0  0
 29 31  2  0  0  0
 29 32  1  0  0  0
 32 33  1  0  0  0
 32 34  1  0  0  0
  6  7  2  0  0  0
 12 16  1  0  0  0
 16 17  1  0  0  0
 16 18  2  0  0  0
 15 10  1  0  0  0
  7  1  1  0  0  0
 28 23  1  0  0  0
  8  9  1  0  0  0
 21 22  1  0  0  0
M  CHG 1  16   1
M  CHG 1  17  -1
M  END
> <minimizedAffinity>
-7.95003

> <CNNscore>
0.3940594196

> <CNNaffinity>
6.9326262474

> <CNN_VS>
2.7318665981

> <CNNaffinity_variance>
0.3660395145

$$$$
[H]c1nc(N([H])c2c([H])c([H])c([N+](=O)[O-])c([H])c2OC([H])([H])[H])nc(N([H])c2c([H])c([H])c([H])c([H])c2S(=O)(=O)C([H])(C([H])([H])[H])C([H])([H])[H])c1Cl


 34 36  0  0  0  0  0  0  0  0999 V2000
  -88.8616   30.7498   -0.8473 C   0  0  0  0  0  0  0  0  0  0  0  0
  -89.5090   31.0738   -1.9569 N   0  0  0  0  0  0  0  0  0  0  0  0
  -90.7386   30.6441   -2.2685 C   0  0  0  0  0  0  0  0  0  0  0  0
  -91.3862   29.8144   -1.3954 C   0  0  0  0  0  0  0  0  0  0  0  0
  -92.9913   29.2550   -1.8047 Cl  0  0  0  0  0  0  0  0  0  0  0  0
  -90.7541   29.4364   -0.2061 C   0  0  0  0  0  0  0  0  0  0  0  0
  -89.5437   29.9193   -0.0026 N   0  0  0  0  0  0  0  0  0  0  0  0
  -87.5561   31.1796   -0.4711 N   0  0  0  0  0  0  0  0  0  0  0  0
  -87.2811   32.1824   -0.7168 H   0  0  0  0  0  0  0  0  0  0  0  0
  -85.3945   31.0233    0.5474 C   0  0  0  0  0  0  0  0  0  0  0  0
  -84.3947   30.3400    1.2034 C   0  0  0  0  0  0  0  0  0  0  0  0
  -84.5102   29.0246    1.5495 C   0  0  0  0  0  0  0  0  0  0  0  0
  -85.6744   28.3964    1.2165 C   0  0  0  0  0  0  0  0  0  0  0  0
  -86.6928   29.0858    0.5504 C   0  0  0  0  0  0  0  0  0  0  0  0
  -86.6035   30.3991    0.1931 C   0  0  0  0  0  0  0  0  0  0  0  0
  -83.4386   28.3920    2.2223 N   0  0  0  0  0  0  0  0  0  0  0  0
  -83.6324   27.2225    2.8998 O   0  0  0  0  0  0  0  0  0  0  0  0
  -82.2954   28.8844    2.2136 O   0  0  0  0  0  0  0  0  0  0  0  0
  -84.0788   32.8219   -0.4257 C   0  0  0  0  0  0  0  0  0  0  0  0
  -85.2377   32.3579    0.2141 O   0  0  0  0  0  0  0  0  0  0  0  0
  -91.4441   28.5748    0.6792 N   0  0  0  0  0  0  0  0  0  0  0  0
  -92.4449   28.3564    0.3614 H   0  0  0  0  0  0  0  0  0  0  0  0
  -91.0430   27.9853    1.8712 C   0  0  0  0  0  0  0  0  0  0  0  0
  -90.8882   28.6608    3.0535 C   0  0  0  0  0  0  0  0  0  0  0  0
  -90.4925   28.0281    4.2482 C   0  0  0  0  0  0  0  0  0  0  0  0
  -90.2460   26.6806    4.2537 C   0  0  0  0  0  0  0  0  0  0  0  0
  -90.3953   25.9826    3.0769 C   0  0  0  0  0  0  0  0  0  0  0  0
  -90.7830   26.6175    1.9164 C   0  0  0  0  0  0  0  0  0  0  0  0
  -90.9372   25.6715    0.4880 S   0  0  0  0  0  0  0  0  0  0  0  0
  -90.8742   24.1924    0.7351 O   0  0  0  0  0  0  0  0  0  0  0  0
  -92.2312   25.9340   -0.2681 O   0  0  0  0  0  0  0  0  0  0  0  0
  -89.5615   25.9701   -0.6443 C   0  0  0  0  0  0  0  0  0  0  0  0
  -88.3147   25.7348    0.2281 C   0  0  0  0  0  0  0  0  0  0  0  0
  -89.5422   25.0187   -1.7860 C   0  0  0  0  0  0  0  0  0  0  0  0
 19 20  1  0  0  0
 20 10  1  0  0  0
 10 11  2  0  0  0
 11 12  1  0  0  0
 12 13  2  0  0  0
 13 14  1  0  0  0
 14 15  2  0  0  0
 15  8  1  0  0  0
  8  1  1  0  0  0
  1  2  2  0  0  0
  2  3  1  0  0  0
  3  4  2  0  0  0
  4  5  1  0  0  0
  4  6  1  0  0  0
  6 21  1  0  0  0
 21 23  1  0  0  0
 23 24  2  0  0  0
 24 25  1  0  0  0
 25 26  2  0  0  0
 26 27  1  0  0  0
 27 28  2  0  0  0
 28 29  1  0  0  0
 29 30  2  0  0  0
 29 31  2  0  0  0
 29 32  1  0  0  0
 32 33  1  0  0  0
 32 34  1  0  0  0
  6  7  2  0  0  0
 12 16  1  0  0  0
 16 17  1  0  0  0
 16 18  2  0  0  0
 15 10  1  0  0  0
  7  1  1  0  0  0
 28 23  1  0  0  0
  8  9  1  0  0  0
 21 22  1  0  0  0
M  CHG 1  16   1
M  CHG 1  17  -1
M  END
> <minimizedAffinity>
-8.48078

> <CNNscore>
0.3095298409

> <CNNaffinity>
6.9107384682

> <CNN_VS>
2.1390798092

> <CNNaffinity_variance>
0.2292826474

$$$$
[H]c1nc(N([H])c2c([H])c([H])c([N+](=O)[O-])c([H])c2OC([H])([H])[H])nc(N([H])c2c([H])c([H])c([H])c([H])c2S(=O)(=O)C([H])(C([H])([H])[H])C([H])([H])[H])c1Cl


 34 36  0  0  0  0  0  0  0  0999 V2000
  -86.0091   33.3224   -2.1539 C   0  0  0  0  0  0  0  0  0  0  0  0
  -84.9374   33.4440   -1.3844 N   0  0  0  0  0  0  0  0  0  0  0  0
  -84.7241   32.7373   -0.2669 C   0  0  0  0  0  0  0  0  0  0  0  0
  -85.6640   31.8236    0.1228 C   0  0  0  0  0  0  0  0  0  0  0  0
  -85.3829   30.9025    1.5821 Cl  0  0  0  0  0  0  0  0  0  0  0  0
  -86.8178   31.6496   -0.6487 C   0  0  0  0  0  0  0  0  0  0  0  0
  -86.9231   32.3992   -1.7290 N   0  0  0  0  0  0  0  0  0  0  0  0
  -86.2816   34.0490   -3.3491 N   0  0  0  0  0  0  0  0  0  0  0  0
  -85.5455   34.7525   -3.6729 H   0  0  0  0  0  0  0  0  0  0  0  0
  -87.8930   35.0712   -4.7957 C   0  0  0  0  0  0  0  0  0  0  0  0
  -89.0164   35.0457   -5.5920 C   0  0  0  0  0  0  0  0  0  0  0  0
  -89.7495   33.9114   -5.7902 C   0  0  0  0  0  0  0  0  0  0  0  0
  -89.3224   32.7798   -5.1594 C   0  0  0  0  0  0  0  0  0  0  0  0
  -88.1822   32.8003   -4.3497 C   0  0  0  0  0  0  0  0  0  0  0  0
  -87.4321   33.9191   -4.1347 C   0  0  0  0  0  0  0  0  0  0  0  0
  -90.8918   33.9654   -6.6229 N   0  0  0  0  0  0  0  0  0  0  0  0
  -92.1208   33.6091   -6.1464 O   0  0  0  0  0  0  0  0  0  0  0  0
  -90.8054   34.3380   -7.8074 O   0  0  0  0  0  0  0  0  0  0  0  0
  -86.8032   37.0433   -5.7104 C   0  0  0  0  0  0  0  0  0  0  0  0
  -87.1770   36.2432   -4.6205 O   0  0  0  0  0  0  0  0  0  0  0  0
  -87.7764   30.7001   -0.2225 N   0  0  0  0  0  0  0  0  0  0  0  0
  -87.5748   30.3060    0.7544 H   0  0  0  0  0  0  0  0  0  0  0  0
  -88.9080   30.2032   -0.8565 C   0  0  0  0  0  0  0  0  0  0  0  0
  -89.9238   30.9816   -1.3466 C   0  0  0  0  0  0  0  0  0  0  0  0
  -91.0519   30.4443   -1.9969 C   0  0  0  0  0  0  0  0  0  0  0  0
  -91.1609   29.0883   -2.1585 C   0  0  0  0  0  0  0  0  0  0  0  0
  -90.1519   28.2876   -1.6735 C   0  0  0  0  0  0  0  0  0  0  0  0
  -89.0548   28.8299   -1.0392 C   0  0  0  0  0  0  0  0  0  0  0  0
  -87.8436   27.7568   -0.4558 S   0  0  0  0  0  0  0  0  0  0  0  0
  -87.7949   26.4477   -1.1884 O   0  0  0  0  0  0  0  0  0  0  0  0
  -86.4416   28.3448   -0.5172 O   0  0  0  0  0  0  0  0  0  0  0  0
  -88.1689   27.2728    1.2540 C   0  0  0  0  0  0  0  0  0  0  0  0
  -86.9600   27.8320    2.0266 C   0  0  0  0  0  0  0  0  0  0  0  0
  -89.4135   27.8793    1.7943 C   0  0  0  0  0  0  0  0  0  0  0  0
 19 20  1  0  0  0
 20 10  1  0  0  0
 10 11  2  0  0  0
 11 12  1  0  0  0
 12 13  2  0  0  0
 13 14  1  0  0  0
 14 15  2  0  0  0
 15  8  1  0  0  0
  8  1  1  0  0  0
  1  2  2  0  0  0
  2  3  1  0  0  0
  3  4  2  0  0  0
  4  5  1  0  0  0
  4  6  1  0  0  0
  6 21  1  0  0  0
 21 23  1  0  0  0
 23 24  2  0  0  0
 24 25  1  0  0  0
 25 26  2  0  0  0
 26 27  1  0  0  0
 27 28  2  0  0  0
 28 29  1  0  0  0
 29 30  2  0  0  0
 29 31  2  0  0  0
 29 32  1  0  0  0
 32 33  1  0  0  0
 32 34  1  0  0  0
  6  7  2  0  0  0
 12 16  1  0  0  0
 16 17  1  0  0  0
 16 18  2  0  0  0
 15 10  1  0  0  0
  7  1  1  0  0  0
 28 23  1  0  0  0
  8  9  1  0  0  0
 21 22  1  0  0  0
M  CHG 1  16   1
M  CHG 1  17  -1
M  END
> <minimizedAffinity>
-7.22700

> <CNNscore>
0.2290634215

> <CNNaffinity>
6.6846160889

> <CNN_VS>
1.5312010050

> <CNNaffinity_variance>
0.2263313532

$$$$
[H]c1nc(N([H])c2c([H])c([H])c([N+](=O)[O-])c([H])c2OC([H])([H])[H])nc(N([H])c2c([H])c([H])c([H])c([H])c2S(=O)(=O)C([H])(C([H])([H])[H])C([H])([H])[H])c1Cl


 34 36  0  0  0  0  0  0  0  0999 V2000
  -88.9878   32.5817   -1.7755 C   0  0  0  0  0  0  0  0  0  0  0  0
  -88.4045   33.7141   -2.1401 N   0  0  0  0  0  0  0  0  0  0  0  0
  -87.0930   33.9604   -2.0266 C   0  0  0  0  0  0  0  0  0  0  0  0
  -86.2847   32.9905   -1.5013 C   0  0  0  0  0  0  0  0  0  0  0  0
  -84.5730   33.3148   -1.3542 Cl  0  0  0  0  0  0  0  0  0  0  0  0
  -86.8422   31.7726   -1.0977 C   0  0  0  0  0  0  0  0  0  0  0  0
  -88.1450   31.6395   -1.2558 N   0  0  0  0  0  0  0  0  0  0  0  0
  -90.3752   32.2720   -1.8757 N   0  0  0  0  0  0  0  0  0  0  0  0
  -91.0517   32.8634   -1.2976 H   0  0  0  0  0  0  0  0  0  0  0  0
  -91.1880   30.0259   -2.0439 C   0  0  0  0  0  0  0  0  0  0  0  0
  -91.7298   28.9667   -2.7379 C   0  0  0  0  0  0  0  0  0  0  0  0
  -92.0456   29.0430   -4.0636 C   0  0  0  0  0  0  0  0  0  0  0  0
  -91.8013   30.2293   -4.6913 C   0  0  0  0  0  0  0  0  0  0  0  0
  -91.2512   31.3078   -3.9912 C   0  0  0  0  0  0  0  0  0  0  0  0
  -90.9265   31.2586   -2.6674 C   0  0  0  0  0  0  0  0  0  0  0  0
  -92.5992   27.9111   -4.7068 N   0  0  0  0  0  0  0  0  0  0  0  0
  -93.9505   27.7183   -4.7404 O   0  0  0  0  0  0  0  0  0  0  0  0
  -91.8703   27.0651   -5.2565 O   0  0  0  0  0  0  0  0  0  0  0  0
  -91.2144   28.7558    0.0296 C   0  0  0  0  0  0  0  0  0  0  0  0
  -90.8816   29.9074   -0.6990 O   0  0  0  0  0  0  0  0  0  0  0  0
  -85.9851   30.7864   -0.5547 N   0  0  0  0  0  0  0  0  0  0  0  0
  -84.9479   31.0547   -0.6044 H   0  0  0  0  0  0  0  0  0  0  0  0
  -86.2663   29.5505    0.0137 C   0  0  0  0  0  0  0  0  0  0  0  0
  -86.9530   28.5473   -0.6189 C   0  0  0  0  0  0  0  0  0  0  0  0
  -87.2090   27.2999   -0.0169 C   0  0  0  0  0  0  0  0  0  0  0  0
  -86.7625   27.0551    1.2549 C   0  0  0  0  0  0  0  0  0  0  0  0
  -86.0707   28.0492    1.9089 C   0  0  0  0  0  0  0  0  0  0  0  0
  -85.8291   29.2646    1.3050 C   0  0  0  0  0  0  0  0  0  0  0  0
  -84.9641   30.4545    2.1966 S   0  0  0  0  0  0  0  0  0  0  0  0
  -85.3041   31.8638    1.8079 O   0  0  0  0  0  0  0  0  0  0  0  0
  -85.1789   30.3513    3.6993 O   0  0  0  0  0  0  0  0  0  0  0  0
  -83.1889   30.3449    1.8801 C   0  0  0  0  0  0  0  0  0  0  0  0
  -82.8691   28.8568    2.1130 C   0  0  0  0  0  0  0  0  0  0  0  0
  -82.8326   30.7055    0.4830 C   0  0  0  0  0  0  0  0  0  0  0  0
 19 20  1  0  0  0
 20 10  1  0  0  0
 10 11  2  0  0  0
 11 12  1  0  0  0
 12 13  2  0  0  0
 13 14  1  0  0  0
 14 15  2  0  0  0
 15  8  1  0  0  0
  8  1  1  0  0  0
  1  2  2  0  0  0
  2  3  1  0  0  0
  3  4  2  0  0  0
  4  5  1  0  0  0
  4  6  1  0  0  0
  6 21  1  0  0  0
 21 23  1  0  0  0
 23 24  2  0  0  0
 24 25  1  0  0  0
 25 26  2  0  0  0
 26 27  1  0  0  0
 27 28  2  0  0  0
 28 29  1  0  0  0
 29 30  2  0  0  0
 29 31  2  0  0  0
 29 32  1  0  0  0
 32 33  1  0  0  0
 32 34  1  0  0  0
  6  7  2  0  0  0
 12 16  1  0  0  0
 16 17  1  0  0  0
 16 18  2  0  0  0
 15 10  1  0  0  0
  7  1  1  0  0  0
 28 23  1  0  0  0
  8  9  1  0  0  0
 21 22  1  0  0  0
M  CHG 1  16   1
M  CHG 1  17  -1
M  END
> <minimizedAffinity>
-7.82389

> <CNNscore>
0.1675421596

> <CNNaffinity>
6.5012640953

> <CNN_VS>
1.0892357826

> <CNNaffinity_variance>
0.3967549801

$$$$
[H]c1nc(N([H])c2c([H])c([H])c([N+](=O)[O-])c([H])c2OC([H])([H])[H])nc(N([H])c2c([H])c([H])c([H])c([H])c2S(=O)(=O)C([H])(C([H])([H])[H])C([H])([H])[H])c1Cl


 34 36  0  0  0  0  0  0  0  0999 V2000
  -87.4139   26.9189   -0.4717 C   0  0  0  0  0  0  0  0  0  0  0  0
  -86.9064   26.3268    0.5994 N   0  0  0  0  0  0  0  0  0  0  0  0
  -86.3827   26.9769    1.6466 C   0  0  0  0  0  0  0  0  0  0  0  0
  -86.3609   28.3441    1.6281 C   0  0  0  0  0  0  0  0  0  0  0  0
  -85.6765   29.1902    2.9965 Cl  0  0  0  0  0  0  0  0  0  0  0  0
  -86.8822   29.0268    0.5239 C   0  0  0  0  0  0  0  0  0  0  0  0
  -87.3725   28.2849   -0.4502 N   0  0  0  0  0  0  0  0  0  0  0  0
  -87.9811   26.2734   -1.6086 N   0  0  0  0  0  0  0  0  0  0  0  0
  -87.3742   26.2030   -2.4850 H   0  0  0  0  0  0  0  0  0  0  0  0
  -90.2454   26.4587   -2.3654 C   0  0  0  0  0  0  0  0  0  0  0  0
  -91.5394   26.0025   -2.4853 C   0  0  0  0  0  0  0  0  0  0  0  0
  -91.9526   24.8185   -1.9462 C   0  0  0  0  0  0  0  0  0  0  0  0
  -91.0206   24.0868   -1.2703 C   0  0  0  0  0  0  0  0  0  0  0  0
  -89.7053   24.5456   -1.1457 C   0  0  0  0  0  0  0  0  0  0  0  0
  -89.2662   25.7239   -1.6740 C   0  0  0  0  0  0  0  0  0  0  0  0
  -93.2992   24.4180   -2.1123 N   0  0  0  0  0  0  0  0  0  0  0  0
  -94.2664   24.8448   -1.2482 O   0  0  0  0  0  0  0  0  0  0  0  0
  -93.6351   23.6686   -3.0477 O   0  0  0  0  0  0  0  0  0  0  0  0
  -90.6702   28.8102   -2.8162 C   0  0  0  0  0  0  0  0  0  0  0  0
  -89.8664   27.6660   -2.9273 O   0  0  0  0  0  0  0  0  0  0  0  0
  -86.8452   30.4413    0.5276 N   0  0  0  0  0  0  0  0  0  0  0  0
  -87.7456   30.8862    0.9043 H   0  0  0  0  0  0  0  0  0  0  0  0
  -85.8535   31.3259    0.1237 C   0  0  0  0  0  0  0  0  0  0  0  0
  -84.5789   31.3403    0.6271 C   0  0  0  0  0  0  0  0  0  0  0  0
  -83.5932   32.2437    0.1842 C   0  0  0  0  0  0  0  0  0  0  0  0
  -83.8974   33.1567   -0.7908 C   0  0  0  0  0  0  0  0  0  0  0  0
  -85.1720   33.1599   -1.3103 C   0  0  0  0  0  0  0  0  0  0  0  0
  -86.1249   32.2689   -0.8652 C   0  0  0  0  0  0  0  0  0  0  0  0
  -87.6956   32.3470   -1.5623 S   0  0  0  0  0  0  0  0  0  0  0  0
  -88.1108   31.0820   -2.2552 O   0  0  0  0  0  0  0  0  0  0  0  0
  -88.7852   32.6692   -0.5504 O   0  0  0  0  0  0  0  0  0  0  0  0
  -87.7677   33.5897   -2.8715 C   0  0  0  0  0  0  0  0  0  0  0  0
  -87.7368   32.7564   -4.1660 C   0  0  0  0  0  0  0  0  0  0  0  0
  -89.0217   34.3867   -2.8365 C   0  0  0  0  0  0  0  0  0  0  0  0
 19 20  1  0  0  0
 20 10  1  0  0  0
 10 11  2  0  0  0
 11 12  1  0  0  0
 12 13  2  0  0  0
 13 14  1  0  0  0
 14 15  2  0  0  0
 15  8  1  0  0  0
  8  1  1  0  0  0
  1  2  2  0  0  0
  2  3  1  0  0  0
  3  4  2  0  0  0
  4  5  1  0  0  0
  4  6  1  0  0  0
  6 21  1  0  0  0
 21 23  1  0  0  0
 23 24  2  0  0  0
 24 25  1  0  0  0
 25 26  2  0  0  0
 26 27  1  0  0  0
 27 28  2  0  0  0
 28 29  1  0  0  0
 29 30  2  0  0  0
 29 31  2  0  0  0
 29 32  1  0  0  0
 32 33  1  0  0  0
 32 34  1  0  0  0
  6  7  2  0  0  0
 12 16  1  0  0  0
 16 17  1  0  0  0
 16 18  2  0  0  0
 15 10  1  0  0  0
  7  1  1  0  0  0
 28 23  1  0  0  0
  8  9  1  0  0  0
 21 22  1  0  0  0
M  CHG 1  16   1
M  CHG 1  17  -1
M  END
> <minimizedAffinity>
-7.81760

> <CNNscore>
0.1627639681

> <CNNaffinity>
6.2669334412

> <CNN_VS>
1.0200309753

> <CNNaffinity_variance>
0.6435185671

$$$$
[H]c1nc(N([H])c2c([H])c([H])c([N+](=O)[O-])c([H])c2OC([H])([H])[H])nc(N([H])c2c([H])c([H])c([H])c([H])c2S(=O)(=O)C([H])(C([H])([H])[H])C([H])([H])[H])c1Cl


 34 36  0  0  0  0  0  0  0  0999 V2000
  -91.0955   29.1308   -1.1676 C   0  0  0  0  0  0  0  0  0  0  0  0
  -91.5209   29.4115   -2.3906 N   0  0  0  0  0  0  0  0  0  0  0  0
  -90.7538   29.9298   -3.3582 C   0  0  0  0  0  0  0  0  0  0  0  0
  -89.4402   30.1943   -3.0853 C   0  0  0  0  0  0  0  0  0  0  0  0
  -88.4410   30.8711   -4.3505 Cl  0  0  0  0  0  0  0  0  0  0  0  0
  -88.9319   29.9196   -1.8113 C   0  0  0  0  0  0  0  0  0  0  0  0
  -89.7776   29.4101   -0.9366 N   0  0  0  0  0  0  0  0  0  0  0  0
  -91.8702   28.5800   -0.1059 N   0  0  0  0  0  0  0  0  0  0  0  0
  -92.9281   28.5300   -0.2467 H   0  0  0  0  0  0  0  0  0  0  0  0
  -90.9688   26.7499    1.1480 C   0  0  0  0  0  0  0  0  0  0  0  0
  -90.4569   26.1829    2.2940 C   0  0  0  0  0  0  0  0  0  0  0  0
  -90.2993   26.8862    3.4532 C   0  0  0  0  0  0  0  0  0  0  0  0
  -90.6740   28.1978    3.4378 C   0  0  0  0  0  0  0  0  0  0  0  0
  -91.1944   28.7784    2.2767 C   0  0  0  0  0  0  0  0  0  0  0  0
  -91.3624   28.0990    1.1059 C   0  0  0  0  0  0  0  0  0  0  0  0
  -89.7662   26.2328    4.5890 N   0  0  0  0  0  0  0  0  0  0  0  0
  -90.0154   26.7032    5.8464 O   0  0  0  0  0  0  0  0  0  0  0  0
  -89.0586   25.2156    4.4710 O   0  0  0  0  0  0  0  0  0  0  0  0
  -90.0040   25.4469   -0.6644 C   0  0  0  0  0  0  0  0  0  0  0  0
  -91.1127   26.0014   -0.0078 O   0  0  0  0  0  0  0  0  0  0  0  0
  -87.5703   30.2049   -1.5533 N   0  0  0  0  0  0  0  0  0  0  0  0
  -86.9302   29.3527   -1.6730 H   0  0  0  0  0  0  0  0  0  0  0  0
  -86.9453   31.3851   -1.1713 C   0  0  0  0  0  0  0  0  0  0  0  0
  -87.1689   32.6030   -1.7583 C   0  0  0  0  0  0  0  0  0  0  0  0
  -86.5269   33.7836   -1.3362 C   0  0  0  0  0  0  0  0  0  0  0  0
  -85.6365   33.7378   -0.2961 C   0  0  0  0  0  0  0  0  0  0  0  0
  -85.3968   32.5245    0.3080 C   0  0  0  0  0  0  0  0  0  0  0  0
  -86.0336   31.3785   -0.1180 C   0  0  0  0  0  0  0  0  0  0  0  0
  -85.6697   29.9025    0.6870 S   0  0  0  0  0  0  0  0  0  0  0  0
  -86.8557   29.2745    1.3591 O   0  0  0  0  0  0  0  0  0  0  0  0
  -85.0797   28.8462   -0.2355 O   0  0  0  0  0  0  0  0  0  0  0  0
  -84.5065   30.1682    2.0434 C   0  0  0  0  0  0  0  0  0  0  0  0
  -85.3163   29.7882    3.2967 C   0  0  0  0  0  0  0  0  0  0  0  0
  -83.3107   29.2903    1.9531 C   0  0  0  0  0  0  0  0  0  0  0  0
 19 20  1  0  0  0
 20 10  1  0  0  0
 10 11  2  0  0  0
 11 12  1  0  0  0
 12 13  2  0  0  0
 13 14  1  0  0  0
 14 15  2  0  0  0
 15  8  1  0  0  0
  8  1  1  0  0  0
  1  2  2  0  0  0
  2  3  1  0  0  0
  3  4  2  0  0  0
  4  5  1  0  0  0
  4  6  1  0  0  0
  6 21  1  0  0  0
 21 23  1  0  0  0
 23 24  2  0  0  0
 24 25  1  0  0  0
 25 26  2  0  0  0
 26 27  1  0  0  0
 27 28  2  0  0  0
 28 29  1  0  0  0
 29 30  2  0  0  0
 29 31  2  0  0  0
 29 32  1  0  0  0
 32 33  1  0  0  0
 32 34  1  0  0  0
  6  7  2  0  0  0
 12 16  1  0  0  0
 16 17  1  0  0  0
 16 18  2  0  0  0
 15 10  1  0  0  0
  7  1  1  0  0  0
 28 23  1  0  0  0
  8  9  1  0  0  0
 21 22  1  0  0  0
M  CHG 1  16   1
M  CHG 1  17  -1
M  END
> <minimizedAffinity>
-8.23839

> <CNNscore>
0.1475018710

> <CNNaffinity>
6.5253171921

> <CNN_VS>
0.9624965191

> <CNNaffinity_variance>
0.4237279296

$$$$
[H]c1nc(N([H])c2c([H])c([H])c([N+](=O)[O-])c([H])c2OC([H])([H])[H])nc(N([H])c2c([H])c([H])c([H])c([H])c2S(=O)(=O)C([H])(C([H])([H])[H])C([H])([H])[H])c1Cl


 34 36  0  0  0  0  0  0  0  0999 V2000
  -90.6117   29.5465   -0.4693 C   0  0  0  0  0  0  0  0  0  0  0  0
  -90.8992   30.3625   -1.4728 N   0  0  0  0  0  0  0  0  0  0  0  0
  -89.9896   31.0609   -2.1645 C   0  0  0  0  0  0  0  0  0  0  0  0
  -88.6701   30.9372   -1.8276 C   0  0  0  0  0  0  0  0  0  0  0  0
  -87.4849   31.8503   -2.7323 Cl  0  0  0  0  0  0  0  0  0  0  0  0
  -88.3036   30.0905   -0.7761 C   0  0  0  0  0  0  0  0  0  0  0  0
  -89.2825   29.4518   -0.1650 N   0  0  0  0  0  0  0  0  0  0  0  0
  -91.5407   28.7834    0.2958 N   0  0  0  0  0  0  0  0  0  0  0  0
  -92.5795   28.9808    0.1431 H   0  0  0  0  0  0  0  0  0  0  0  0
  -91.2351   26.4610    0.7932 C   0  0  0  0  0  0  0  0  0  0  0  0
  -90.9231   25.4186    1.6375 C   0  0  0  0  0  0  0  0  0  0  0  0
  -90.5695   25.6116    2.9417 C   0  0  0  0  0  0  0  0  0  0  0  0
  -90.5349   26.8996    3.3900 C   0  0  0  0  0  0  0  0  0  0  0  0
  -90.8509   27.9616    2.5367 C   0  0  0  0  0  0  0  0  0  0  0  0
  -91.2072   27.7970    1.2304 C   0  0  0  0  0  0  0  0  0  0  0  0
  -90.2629   24.4892    3.7464 N   0  0  0  0  0  0  0  0  0  0  0  0
  -91.1346   23.4431    3.8471 O   0  0  0  0  0  0  0  0  0  0  0  0
  -89.1938   24.4274    4.3809 O   0  0  0  0  0  0  0  0  0  0  0  0
  -92.7461   25.5004   -0.8523 C   0  0  0  0  0  0  0  0  0  0  0  0
  -91.5891   26.2224   -0.5239 O   0  0  0  0  0  0  0  0  0  0  0  0
  -86.9321   29.9821   -0.4452 N   0  0  0  0  0  0  0  0  0  0  0  0
  -86.3086   30.6519   -1.0046 H   0  0  0  0  0  0  0  0  0  0  0  0
  -86.2784   29.1597    0.4635 C   0  0  0  0  0  0  0  0  0  0  0  0
  -86.5559   27.8295    0.6406 C   0  0  0  0  0  0  0  0  0  0  0  0
  -85.8632   27.0211    1.5628 C   0  0  0  0  0  0  0  0  0  0  0  0
  -84.8648   27.5651    2.3271 C   0  0  0  0  0  0  0  0  0  0  0  0
  -84.5697   28.8998    2.1655 C   0  0  0  0  0  0  0  0  0  0  0  0
  -85.2579   29.6768    1.2584 C   0  0  0  0  0  0  0  0  0  0  0  0
  -84.8308   31.3378    1.1260 S   0  0  0  0  0  0  0  0  0  0  0  0
  -85.9365   32.2038    0.5965 O   0  0  0  0  0  0  0  0  0  0  0  0
  -84.3897   31.9505    2.4469 O   0  0  0  0  0  0  0  0  0  0  0  0
  -83.4976   31.5757   -0.0697 C   0  0  0  0  0  0  0  0  0  0  0  0
  -83.7862   32.9666   -0.6641 C   0  0  0  0  0  0  0  0  0  0  0  0
  -82.1539   31.5879    0.5651 C   0  0  0  0  0  0  0  0  0  0  0  0
 19 20  1  0  0  0
 20 10  1  0  0  0
 10 11  2  0  0  0
 11 12  1  0  0  0
 12 13  2  0  0  0
 13 14  1  0  0  0
 14 15  2  0  0  0
 15  8  1  0  0  0
  8  1  1  0  0  0
  1  2  2  0  0  0
  2  3  1  0  0  0
  3  4  2  0  0  0
  4  5  1  0  0  0
  4  6  1  0  0  0
  6 21  1  0  0  0
 21 23  1  0  0  0
 23 24  2  0  0  0
 24 25  1  0  0  0
 25 26  2  0  0  0
 26 27  1  0  0  0
 27 28  2  0  0  0
 28 29  1  0  0  0
 29 30  2  0  0  0
 29 31  2  0  0  0
 29 32  1  0  0  0
 32 33  1  0  0  0
 32 34  1  0  0  0
  6  7  2  0  0  0
 12 16  1  0  0  0
 16 17  1  0  0  0
 16 18  2  0  0  0
 15 10  1  0  0  0
  7  1  1  0  0  0
 28 23  1  0  0  0
  8  9  1  0  0  0
 21 22  1  0  0  0
M  CHG 1  16   1
M  CHG 1  17  -1
M  END
> <minimizedAffinity>
-8.13203

> <CNNscore>
0.1413035542

> <CNNaffinity>
6.5135779381

> <CNN_VS>
0.9203917384

> <CNNaffinity_variance>
0.4245361388

$$$$
[H]c1nc(N([H])c2c([H])c([H])c([N+](=O)[O-])c([H])c2OC([H])([H])[H])nc(N([H])c2c([H])c([H])c([H])c([H])c2S(=O)(=O)C([H])(C([H])([H])[H])C([H])([H])[H])c1Cl


 34 36  0  0  0  0  0  0  0  0999 V2000
  -87.0444   32.0924   -1.3139 C   0  0  0  0  0  0  0  0  0  0  0  0
  -86.7161   32.9186   -2.2963 N   0  0  0  0  0  0  0  0  0  0  0  0
  -87.2545   32.8883   -3.5222 C   0  0  0  0  0  0  0  0  0  0  0  0
  -88.2091   31.9487   -3.7982 C   0  0  0  0  0  0  0  0  0  0  0  0
  -88.9102   31.9114   -5.3994 Cl  0  0  0  0  0  0  0  0  0  0  0  0
  -88.5980   31.0477   -2.8013 C   0  0  0  0  0  0  0  0  0  0  0  0
  -88.0012   31.1694   -1.6313 N   0  0  0  0  0  0  0  0  0  0  0  0
  -86.5020   32.0842    0.0039 N   0  0  0  0  0  0  0  0  0  0  0  0
  -86.6275   32.9684    0.5904 H   0  0  0  0  0  0  0  0  0  0  0  0
  -84.4629   31.2143    0.9090 C   0  0  0  0  0  0  0  0  0  0  0  0
  -83.7046   30.2236    1.4925 C   0  0  0  0  0  0  0  0  0  0  0  0
  -84.2144   28.9956    1.8015 C   0  0  0  0  0  0  0  0  0  0  0  0
  -85.5284   28.7783    1.5063 C   0  0  0  0  0  0  0  0  0  0  0  0
  -86.3027   29.7809    0.9137 C   0  0  0  0  0  0  0  0  0  0  0  0
  -85.8188   31.0157    0.5948 C   0  0  0  0  0  0  0  0  0  0  0  0
  -83.3715   28.0299    2.4000 N   0  0  0  0  0  0  0  0  0  0  0  0
  -83.8930   26.9003    2.9624 O   0  0  0  0  0  0  0  0  0  0  0  0
  -82.1369   28.1853    2.4287 O   0  0  0  0  0  0  0  0  0  0  0  0
  -82.7460   32.5585   -0.1674 C   0  0  0  0  0  0  0  0  0  0  0  0
  -83.9074   32.4471    0.6113 O   0  0  0  0  0  0  0  0  0  0  0  0
  -89.5854   30.0833   -3.1128 N   0  0  0  0  0  0  0  0  0  0  0  0
  -89.1944   29.2323   -3.6355 H   0  0  0  0  0  0  0  0  0  0  0  0
  -90.9514   30.0667   -2.8612 C   0  0  0  0  0  0  0  0  0  0  0  0
  -91.7885   31.1315   -3.0696 C   0  0  0  0  0  0  0  0  0  0  0  0
  -93.1729   31.0754   -2.8160 C   0  0  0  0  0  0  0  0  0  0  0  0
  -93.7299   29.9178   -2.3403 C   0  0  0  0  0  0  0  0  0  0  0  0
  -92.9071   28.8358   -2.1236 C   0  0  0  0  0  0  0  0  0  0  0  0
  -91.5541   28.9079   -2.3768 C   0  0  0  0  0  0  0  0  0  0  0  0
  -90.5969   27.5119   -2.0703 S   0  0  0  0  0  0  0  0  0  0  0  0
  -91.3851   26.3415   -1.5586 O   0  0  0  0  0  0  0  0  0  0  0  0
  -89.8368   27.0254   -3.2952 O   0  0  0  0  0  0  0  0  0  0  0  0
  -89.3956   27.8196   -0.7567 C   0  0  0  0  0  0  0  0  0  0  0  0
  -90.0175   27.1328    0.4732 C   0  0  0  0  0  0  0  0  0  0  0  0
  -88.0707   27.2073   -1.0369 C   0  0  0  0  0  0  0  0  0  0  0  0
 19 20  1  0  0  0
 20 10  1  0  0  0
 10 11  2  0  0  0
 11 12  1  0  0  0
 12 13  2  0  0  0
 13 14  1  0  0  0
 14 15  2  0  0  0
 15  8  1  0  0  0
  8  1  1  0  0  0
  1  2  2  0  0  0
  2  3  1  0  0  0
  3  4  2  0  0  0
  4  5  1  0  0  0
  4  6  1  0  0  0
  6 21  1  0  0  0
 21 23  1  0  0  0
 23 24  2  0  0  0
 24 25  1  0  0  0
 25 26  2  0  0  0
 26 27  1  0  0  0
 27 28  2  0  0  0
 28 29  1  0  0  0
 29 30  2  0  0  0
 29 31  2  0  0  0
 29 32  1  0  0  0
 32 33  1  0  0  0
 32 34  1  0  0  0
  6  7  2  0  0  0
 12 16  1  0  0  0
 16 17  1  0  0  0
 16 18  2  0  0  0
 15 10  1  0  0  0
  7  1  1  0  0  0
 28 23  1  0  0  0
  8  9  1  0  0  0
 21 22  1  0  0  0
M  CHG 1  16   1
M  CHG 1  17  -1
M  END
> <minimizedAffinity>
-7.59224

> <CNNscore>
0.1112156808

> <CNNaffinity>
6.8775053024

> <CNN_VS>
0.7648864388

> <CNNaffinity_variance>
0.2221192867

$$$$
[H]c1nc(N([H])c2c([H])c(OC([H])([H])[H])c([H])c(N3C([H])([H])C([H])([H])N(C([H])([H])[H])C([H])([H])C3([H])[H])c2[H])nc(N([H])c2nc3c(c([H])c2[H])OC(C([H])([H])[H])(C([H])([H])[H])C(=O)N3[H])c1F


 40 44  0  0  0  0  0  0  0  0999 V2000
  -85.6699   27.5100    1.6358 C   0  0  0  0  0  0  0  0  0  0  0  0
  -84.5960   27.2329    2.3757 N   0  0  0  0  0  0  0  0  0  0  0  0
  -83.6231   28.1431    2.4514 C   0  0  0  0  0  0  0  0  0  0  0  0
  -83.6660   29.3513    1.8090 C   0  0  0  0  0  0  0  0  0  0  0  0
  -82.6468   30.2268    1.9273 F   0  0  0  0  0  0  0  0  0  0  0  0
  -84.8104   29.6472    1.0204 C   0  0  0  0  0  0  0  0  0  0  0  0
  -85.7277   28.7024    0.9933 N   0  0  0  0  0  0  0  0  0  0  0  0
  -86.7256   26.5837    1.5181 N   0  0  0  0  0  0  0  0  0  0  0  0
  -86.4318   25.5848    1.2659 H   0  0  0  0  0  0  0  0  0  0  0  0
  -90.0945   27.2823    2.9640 C   0  0  0  0  0  0  0  0  0  0  0  0
  -88.7401   26.9252    2.9110 C   0  0  0  0  0  0  0  0  0  0  0  0
  -88.0760   26.8929    1.7107 C   0  0  0  0  0  0  0  0  0  0  0  0
  -88.7862   27.2245    0.5376 C   0  0  0  0  0  0  0  0  0  0  0  0
  -90.1204   27.5784    0.5662 C   0  0  0  0  0  0  0  0  0  0  0  0
  -90.7348   27.5945    1.8011 C   0  0  0  0  0  0  0  0  0  0  0  0
  -90.8114   27.9248   -0.6393 N   0  0  0  0  0  0  0  0  0  0  0  0
  -90.9280   29.2953   -1.0334 C   0  0  0  0  0  0  0  0  0  0  0  0
  -90.3357   29.4127   -2.4259 C   0  0  0  0  0  0  0  0  0  0  0  0
  -91.0121   28.5574   -3.3489 N   0  0  0  0  0  0  0  0  0  0  0  0
  -92.0989   29.1455   -4.0608 C   0  0  0  0  0  0  0  0  0  0  0  0
  -91.1728   27.2020   -2.9673 C   0  0  0  0  0  0  0  0  0  0  0  0
  -91.4069   26.9340   -1.5175 C   0  0  0  0  0  0  0  0  0  0  0  0
  -90.0739   27.0362    5.3882 C   0  0  0  0  0  0  0  0  0  0  0  0
  -90.7593   27.3132    4.1840 O   0  0  0  0  0  0  0  0  0  0  0  0
  -84.8322   30.8907    0.3674 N   0  0  0  0  0  0  0  0  0  0  0  0
  -83.9072   31.4488    0.3600 H   0  0  0  0  0  0  0  0  0  0  0  0
  -85.9183   31.5132   -0.2880 C   0  0  0  0  0  0  0  0  0  0  0  0
  -87.2303   31.2596   -0.0070 C   0  0  0  0  0  0  0  0  0  0  0  0
  -88.2199   31.9398   -0.7281 C   0  0  0  0  0  0  0  0  0  0  0  0
  -87.8393   32.8372   -1.6916 C   0  0  0  0  0  0  0  0  0  0  0  0
  -88.8020   33.5210   -2.4163 O   0  0  0  0  0  0  0  0  0  0  0  0
  -88.5997   34.2157   -3.6070 C   0  0  0  0  0  0  0  0  0  0  0  0
  -89.5255   35.4152   -3.6804 C   0  0  0  0  0  0  0  0  0  0  0  0
  -88.9260   33.2857   -4.7513 C   0  0  0  0  0  0  0  0  0  0  0  0
  -87.1918   34.7271   -3.7226 C   0  0  0  0  0  0  0  0  0  0  0  0
  -86.9152   35.7323   -4.4467 O   0  0  0  0  0  0  0  0  0  0  0  0
  -86.1961   34.0354   -2.9880 N   0  0  0  0  0  0  0  0  0  0  0  0
  -86.5138   33.0878   -1.9695 C   0  0  0  0  0  0  0  0  0  0  0  0
  -85.6092   32.4328   -1.2748 N   0  0  0  0  0  0  0  0  0  0  0  0
  -85.1983   34.2260   -3.1996 H   0  0  0  0  0  0  0  0  0  0  0  0
 23 24  1  0  0  0
 24 10  1  0  0  0
 10 11  2  0  0  0
 11 12  1  0  0  0
 12  8  1  0  0  0
  8  1  1  0  0  0
  1  2  2  0  0  0
  2  3  1  0  0  0
  3  4  2  0  0  0
  4  5  1  0  0  0
  4  6  1  0  0  0
  6 25  1  0  0  0
 25 27  1  0  0  0
 27 28  2  0  0  0
 28 29  1  0  0  0
 29 30  2  0  0  0
 30 31  1  0  0  0
 31 32  1  0  0  0
 32 33  1  0  0  0
 32 34  1  0  0  0
 32 35  1  0  0  0
 35 36  2  0  0  0
 35 37  1  0  0  0
 37 38  1  0  0  0
 38 39  2  0  0  0
  6  7  2  0  0  0
 12 13  2  0  0  0
 13 14  1  0  0  0
 14 15  2  0  0  0
 14 16  1  0  0  0
 16 17  1  0  0  0
 17 18  1  0  0  0
 18 19  1  0  0  0
 19 20  1  0  0  0
 19 21  1  0  0  0
 21 22  1  0  0  0
 15 10  1  0  0  0
 22 16  1  0  0  0
  7  1  1  0  0  0
 39 27  1  0  0  0
 38 30  1  0  0  0
  8  9  1  0  0  0
 25 26  1  0  0  0
 37 40  1  0  0  0
M  END
> <minimizedAffinity>
-10.39458

> <CNNscore>
0.4324612916

> <CNNaffinity>
7.6035485268

> <CNN_VS>
3.2882404327

> <CNNaffinity_variance>
0.0650658086

$$$$
[H]c1nc(N([H])c2c([H])c(OC([H])([H])[H])c([H])c(N3C([H])([H])C([H])([H])N(C([H])([H])[H])C([H])([H])C3([H])[H])c2[H])nc(N([H])c2nc3c(c([H])c2[H])OC(C([H])([H])[H])(C([H])([H])[H])C(=O)N3[H])c1F


 40 44  0  0  0  0  0  0  0  0999 V2000
  -84.9511   32.9801   -0.2480 C   0  0  0  0  0  0  0  0  0  0  0  0
  -83.6887   32.9932   -0.6766 N   0  0  0  0  0  0  0  0  0  0  0  0
  -82.8392   32.0908   -0.1820 C   0  0  0  0  0  0  0  0  0  0  0  0
  -83.1929   31.1475    0.7451 C   0  0  0  0  0  0  0  0  0  0  0  0
  -82.2835   30.2638    1.2048 F   0  0  0  0  0  0  0  0  0  0  0  0
  -84.5383   31.1330    1.2021 C   0  0  0  0  0  0  0  0  0  0  0  0
  -85.3174   32.0521    0.6700 N   0  0  0  0  0  0  0  0  0  0  0  0
  -85.8896   33.9123   -0.7343 N   0  0  0  0  0  0  0  0  0  0  0  0
  -85.8842   34.8651   -0.2442 H   0  0  0  0  0  0  0  0  0  0  0  0
  -87.8262   34.0142   -3.9229 C   0  0  0  0  0  0  0  0  0  0  0  0
  -86.9045   34.3936   -2.9374 C   0  0  0  0  0  0  0  0  0  0  0  0
  -86.7832   33.6644   -1.7813 C   0  0  0  0  0  0  0  0  0  0  0  0
  -87.6055   32.5309   -1.6092 C   0  0  0  0  0  0  0  0  0  0  0  0
  -88.5204   32.1395   -2.5662 C   0  0  0  0  0  0  0  0  0  0  0  0
  -88.5970   32.9100   -3.7077 C   0  0  0  0  0  0  0  0  0  0  0  0
  -89.3310   30.9753   -2.3704 N   0  0  0  0  0  0  0  0  0  0  0  0
  -90.7422   31.0342   -2.5989 C   0  0  0  0  0  0  0  0  0  0  0  0
  -91.0745   29.9674   -3.6261 C   0  0  0  0  0  0  0  0  0  0  0  0
  -90.6856   28.6710   -3.1689 N   0  0  0  0  0  0  0  0  0  0  0  0
  -91.6883   27.9279   -2.4787 C   0  0  0  0  0  0  0  0  0  0  0  0
  -89.3597   28.5317   -2.6883 C   0  0  0  0  0  0  0  0  0  0  0  0
  -88.7842   29.6966   -1.9533 C   0  0  0  0  0  0  0  0  0  0  0  0
  -87.1928   35.9423   -5.2717 C   0  0  0  0  0  0  0  0  0  0  0  0
  -87.9420   34.7579   -5.0912 O   0  0  0  0  0  0  0  0  0  0  0  0
  -84.8787   30.1594    2.1556 N   0  0  0  0  0  0  0  0  0  0  0  0
  -84.5448   30.3367    3.1677 H   0  0  0  0  0  0  0  0  0  0  0  0
  -85.6088   28.9653    1.9612 C   0  0  0  0  0  0  0  0  0  0  0  0
  -85.0695   27.7140    2.0515 C   0  0  0  0  0  0  0  0  0  0  0  0
  -85.8963   26.6043    1.8349 C   0  0  0  0  0  0  0  0  0  0  0  0
  -87.2188   26.8103    1.5398 C   0  0  0  0  0  0  0  0  0  0  0  0
  -88.0540   25.7266    1.3223 O   0  0  0  0  0  0  0  0  0  0  0  0
  -89.3126   25.7615    0.7254 C   0  0  0  0  0  0  0  0  0  0  0  0
  -90.2144   24.7058    1.3363 C   0  0  0  0  0  0  0  0  0  0  0  0
  -89.1410   25.4558   -0.7437 C   0  0  0  0  0  0  0  0  0  0  0  0
  -89.9844   27.0916    0.9166 C   0  0  0  0  0  0  0  0  0  0  0  0
  -91.2485   27.2005    0.8801 O   0  0  0  0  0  0  0  0  0  0  0  0
  -89.1415   28.2097    1.1379 N   0  0  0  0  0  0  0  0  0  0  0  0
  -87.7556   28.0756    1.4505 C   0  0  0  0  0  0  0  0  0  0  0  0
  -86.9529   29.0964    1.6592 N   0  0  0  0  0  0  0  0  0  0  0  0
  -89.5485   29.1617    1.0698 H   0  0  0  0  0  0  0  0  0  0  0  0
 23 24  1  0  0  0
 24 10  1  0  0  0
 10 11  2  0  0  0
 11 12  1  0  0  0
 12  8  1  0  0  0
  8  1  1  0  0  0
  1  2  2  0  0  0
  2  3  1  0  0  0
  3  4  2  0  0  0
  4  5  1  0  0  0
  4  6  1  0  0  0
  6 25  1  0  0  0
 25 27  1  0  0  0
 27 28  2  0  0  0
 28 29  1  0  0  0
 29 30  2  0  0  0
 30 31  1  0  0  0
 31 32  1  0  0  0
 32 33  1  0  0  0
 32 34  1  0  0  0
 32 35  1  0  0  0
 35 36  2  0  0  0
 35 37  1  0  0  0
 37 38  1  0  0  0
 38 39  2  0  0  0
  6  7  2  0  0  0
 12 13  2  0  0  0
 13 14  1  0  0  0
 14 15  2  0  0  0
 14 16  1  0  0  0
 16 17  1  0  0  0
 17 18  1  0  0  0
 18 19  1  0  0  0
 19 20  1  0  0  0
 19 21  1  0  0  0
 21 22  1  0  0  0
 15 10  1  0  0  0
 22 16  1  0  0  0
  7  1  1  0  0  0
 39 27  1  0  0  0
 38 30  1  0  0  0
  8  9  1  0  0  0
 25 26  1  0  0  0
 37 40  1  0  0  0
M  END
> <minimizedAffinity>
-9.43692

> <CNNscore>
0.3447109163

> <CNNaffinity>
7.6016378403

> <CNN_VS>
2.6203675270

> <CNNaffinity_variance>
0.0860673338

$$$$
[H]c1nc(N([H])c2c([H])c(OC([H])([H])[H])c([H])c(N3C([H])([H])C([H])([H])N(C([H])([H])[H])C([H])([H])C3([H])[H])c2[H])nc(N([H])c2nc3c(c([H])c2[H])OC(C([H])([H])[H])(C([H])([H])[H])C(=O)N3[H])c1F


 40 44  0  0  0  0  0  0  0  0999 V2000
  -85.6246   28.1574    1.8111 C   0  0  0  0  0  0  0  0  0  0  0  0
  -84.4807   27.8688    2.4322 N   0  0  0  0  0  0  0  0  0  0  0  0
  -83.4620   28.7232    2.3195 C   0  0  0  0  0  0  0  0  0  0  0  0
  -83.5257   29.8853    1.5985 C   0  0  0  0  0  0  0  0  0  0  0  0
  -82.4574   30.7055    1.5248 F   0  0  0  0  0  0  0  0  0  0  0  0
  -84.7447   30.1936    0.9365 C   0  0  0  0  0  0  0  0  0  0  0  0
  -85.7040   29.3047    1.0930 N   0  0  0  0  0  0  0  0  0  0  0  0
  -86.7315   27.2890    1.8937 N   0  0  0  0  0  0  0  0  0  0  0  0
  -86.9052   26.8598    2.8598 H   0  0  0  0  0  0  0  0  0  0  0  0
  -88.5631   27.2388   -1.3577 C   0  0  0  0  0  0  0  0  0  0  0  0
  -87.6933   27.6798   -0.3508 C   0  0  0  0  0  0  0  0  0  0  0  0
  -87.5771   26.9794    0.8235 C   0  0  0  0  0  0  0  0  0  0  0  0
  -88.3515   25.8121    0.9923 C   0  0  0  0  0  0  0  0  0  0  0  0
  -89.2149   25.3599    0.0143 C   0  0  0  0  0  0  0  0  0  0  0  0
  -89.2887   26.1040   -1.1448 C   0  0  0  0  0  0  0  0  0  0  0  0
  -89.9769   24.1630    0.2078 N   0  0  0  0  0  0  0  0  0  0  0  0
  -89.9352   23.1178   -0.7683 C   0  0  0  0  0  0  0  0  0  0  0  0
  -89.4898   21.8551   -0.0536 C   0  0  0  0  0  0  0  0  0  0  0  0
  -90.3814   21.5225    1.0118 N   0  0  0  0  0  0  0  0  0  0  0  0
  -91.4428   20.6298    0.6794 C   0  0  0  0  0  0  0  0  0  0  0  0
  -90.6949   22.5546    1.9312 C   0  0  0  0  0  0  0  0  0  0  0  0
  -90.8039   23.9374    1.3795 C   0  0  0  0  0  0  0  0  0  0  0  0
  -87.8925   29.1095   -2.7679 C   0  0  0  0  0  0  0  0  0  0  0  0
  -88.6739   27.9537   -2.5442 O   0  0  0  0  0  0  0  0  0  0  0  0
  -84.7871   31.3888    0.1997 N   0  0  0  0  0  0  0  0  0  0  0  0
  -83.8645   31.9467    0.1305 H   0  0  0  0  0  0  0  0  0  0  0  0
  -85.8914   31.9626   -0.4695 C   0  0  0  0  0  0  0  0  0  0  0  0
  -87.1953   31.7157   -0.1477 C   0  0  0  0  0  0  0  0  0  0  0  0
  -88.2049   32.3440   -0.8880 C   0  0  0  0  0  0  0  0  0  0  0  0
  -87.8515   33.1855   -1.9104 C   0  0  0  0  0  0  0  0  0  0  0  0
  -88.8344   33.8173   -2.6549 O   0  0  0  0  0  0  0  0  0  0  0  0
  -88.6617   34.4416   -3.8885 C   0  0  0  0  0  0  0  0  0  0  0  0
  -89.5995   35.6272   -4.0144 C   0  0  0  0  0  0  0  0  0  0  0  0
  -89.0017   33.4426   -4.9690 C   0  0  0  0  0  0  0  0  0  0  0  0
  -87.2609   34.9564   -4.0624 C   0  0  0  0  0  0  0  0  0  0  0  0
  -87.0077   35.9189   -4.8503 O   0  0  0  0  0  0  0  0  0  0  0  0
  -86.2448   34.3176   -3.3082 N   0  0  0  0  0  0  0  0  0  0  0  0
  -86.5340   33.4297   -2.2291 C   0  0  0  0  0  0  0  0  0  0  0  0
  -85.6100   32.8243   -1.5151 N   0  0  0  0  0  0  0  0  0  0  0  0
  -85.2531   34.5031   -3.5506 H   0  0  0  0  0  0  0  0  0  0  0  0
 23 24  1  0  0  0
 24 10  1  0  0  0
 10 11  2  0  0  0
 11 12  1  0  0  0
 12  8  1  0  0  0
  8  1  1  0  0  0
  1  2  2  0  0  0
  2  3  1  0  0  0
  3  4  2  0  0  0
  4  5  1  0  0  0
  4  6  1  0  0  0
  6 25  1  0  0  0
 25 27  1  0  0  0
 27 28  2  0  0  0
 28 29  1  0  0  0
 29 30  2  0  0  0
 30 31  1  0  0  0
 31 32  1  0  0  0
 32 33  1  0  0  0
 32 34  1  0  0  0
 32 35  1  0  0  0
 35 36  2  0  0  0
 35 37  1  0  0  0
 37 38  1  0  0  0
 38 39  2  0  0  0
  6  7  2  0  0  0
 12 13  2  0  0  0
 13 14  1  0  0  0
 14 15  2  0  0  0
 14 16  1  0  0  0
 16 17  1  0  0  0
 17 18  1  0  0  0
 18 19  1  0  0  0
 19 20  1  0  0  0
 19 21  1  0  0  0
 21 22  1  0  0  0
 15 10  1  0  0  0
 22 16  1  0  0  0
  7  1  1  0  0  0
 39 27  1  0  0  0
 38 30  1  0  0  0
  8  9  1  0  0  0
 25 26  1  0  0  0
 37 40  1  0  0  0
M  END
> <minimizedAffinity>
-10.21552

> <CNNscore>
0.2730586827

> <CNNaffinity>
7.4001669884

> <CNN_VS>
2.0206799507

> <CNNaffinity_variance>
0.1280445606

$$$$
[H]c1nc(N([H])c2c([H])c(OC([H])([H])[H])c([H])c(N3C([H])([H])C([H])([H])N(C([H])([H])[H])C([H])([H])C3([H])[H])c2[H])nc(N([H])c2nc3c(c([H])c2[H])OC(C([H])([H])[H])(C([H])([H])[H])C(=O)N3[H])c1F


 40 44  0  0  0  0  0  0  0  0999 V2000
  -84.7477   31.5816    0.8573 C   0  0  0  0  0  0  0  0  0  0  0  0
  -83.4247   31.7321    0.9234 N   0  0  0  0  0  0  0  0  0  0  0  0
  -82.6863   30.6994    1.3344 C   0  0  0  0  0  0  0  0  0  0  0  0
  -83.2135   29.4881    1.6938 C   0  0  0  0  0  0  0  0  0  0  0  0
  -82.4097   28.4847    2.1016 F   0  0  0  0  0  0  0  0  0  0  0  0
  -84.6236   29.3271    1.6234 C   0  0  0  0  0  0  0  0  0  0  0  0
  -85.2856   30.3880    1.2097 N   0  0  0  0  0  0  0  0  0  0  0  0
  -85.5757   32.6402    0.4332 N   0  0  0  0  0  0  0  0  0  0  0  0
  -85.6466   33.4660    1.1121 H   0  0  0  0  0  0  0  0  0  0  0  0
  -86.9524   33.5338   -2.9187 C   0  0  0  0  0  0  0  0  0  0  0  0
  -86.2206   33.6523   -1.7291 C   0  0  0  0  0  0  0  0  0  0  0  0
  -86.2733   32.6637   -0.7789 C   0  0  0  0  0  0  0  0  0  0  0  0
  -87.0789   31.5322   -1.0266 C   0  0  0  0  0  0  0  0  0  0  0  0
  -87.8084   31.3949   -2.1907 C   0  0  0  0  0  0  0  0  0  0  0  0
  -87.7153   32.4196   -3.1094 C   0  0  0  0  0  0  0  0  0  0  0  0
  -88.6055   30.2278   -2.4211 N   0  0  0  0  0  0  0  0  0  0  0  0
  -88.0683   29.1226   -3.1540 C   0  0  0  0  0  0  0  0  0  0  0  0
  -88.1775   27.8988   -2.2630 C   0  0  0  0  0  0  0  0  0  0  0  0
  -89.5339   27.6515   -1.8889 N   0  0  0  0  0  0  0  0  0  0  0  0
  -90.2599   26.7607   -2.7335 C   0  0  0  0  0  0  0  0  0  0  0  0
  -90.2620   28.7453   -1.3578 C   0  0  0  0  0  0  0  0  0  0  0  0
  -89.9641   30.0925   -1.9274 C   0  0  0  0  0  0  0  0  0  0  0  0
  -87.8873   34.6481   -4.8737 C   0  0  0  0  0  0  0  0  0  0  0  0
  -86.8926   34.5393   -3.8761 O   0  0  0  0  0  0  0  0  0  0  0  0
  -85.1436   28.0776    1.9998 N   0  0  0  0  0  0  0  0  0  0  0  0
  -84.4405   27.3635    2.4037 H   0  0  0  0  0  0  0  0  0  0  0  0
  -86.4808   27.6284    1.9178 C   0  0  0  0  0  0  0  0  0  0  0  0
  -87.5136   28.1617    2.6344 C   0  0  0  0  0  0  0  0  0  0  0  0
  -88.7981   27.6281    2.4684 C   0  0  0  0  0  0  0  0  0  0  0  0
  -88.9762   26.5889    1.5927 C   0  0  0  0  0  0  0  0  0  0  0  0
  -90.2384   26.0465    1.4133 O   0  0  0  0  0  0  0  0  0  0  0  0
  -90.5335   24.8233    0.8150 C   0  0  0  0  0  0  0  0  0  0  0  0
  -91.8611   24.9009    0.0853 C   0  0  0  0  0  0  0  0  0  0  0  0
  -90.6444   23.7847    1.9060 C   0  0  0  0  0  0  0  0  0  0  0  0
  -89.4902   24.4279   -0.1911 C   0  0  0  0  0  0  0  0  0  0  0  0
  -89.7654   23.6410   -1.1484 O   0  0  0  0  0  0  0  0  0  0  0  0
  -88.1934   24.9738   -0.0184 N   0  0  0  0  0  0  0  0  0  0  0  0
  -87.9294   26.0562    0.8734 C   0  0  0  0  0  0  0  0  0  0  0  0
  -86.7360   26.5795    1.0520 N   0  0  0  0  0  0  0  0  0  0  0  0
  -87.4066   24.5704   -0.5614 H   0  0  0  0  0  0  0  0  0  0  0  0
 23 24  1  0  0  0
 24 10  1  0  0  0
 10 11  2  0  0  0
 11 12  1  0  0  0
 12  8  1  0  0  0
  8  1  1  0  0  0
  1  2  2  0  0  0
  2  3  1  0  0  0
  3  4  2  0  0  0
  4  5  1  0  0  0
  4  6  1  0  0  0
  6 25  1  0  0  0
 25 27  1  0  0  0
 27 28  2  0  0  0
 28 29  1  0  0  0
 29 30  2  0  0  0
 30 31  1  0  0  0
 31 32  1  0  0  0
 32 33  1  0  0  0
 32 34  1  0  0  0
 32 35  1  0  0  0
 35 36  2  0  0  0
 35 37  1  0  0  0
 37 38  1  0  0  0
 38 39  2  0  0  0
  6  7  2  0  0  0
 12 13  2  0  0  0
 13 14  1  0  0  0
 14 15  2  0  0  0
 14 16  1  0  0  0
 16 17  1  0  0  0
 17 18  1  0  0  0
 18 19  1  0  0  0
 19 20  1  0  0  0
 19 21  1  0  0  0
 21 22  1  0  0  0
 15 10  1  0  0  0
 22 16  1  0  0  0
  7  1  1  0  0  0
 39 27  1  0  0  0
 38 30  1  0  0  0
  8  9  1  0  0  0
 25 26  1  0  0  0
 37 40  1  0  0  0
M  END
> <minimizedAffinity>
-9.80489

> <CNNscore>
0.1666948348

> <CNNaffinity>
7.4102921486

> <CNN_VS>
1.2352573872

> <CNNaffinity_variance>
0.1327601373

$$$$
[H]c1nc(N([H])c2c([H])c(OC([H])([H])[H])c([H])c(N3C([H])([H])C([H])([H])N(C([H])([H])[H])C([H])([H])C3([H])[H])c2[H])nc(N([H])c2nc3c(c([H])c2[H])OC(C([H])([H])[H])(C([H])([H])[H])C(=O)N3[H])c1F


 40 44  0  0  0  0  0  0  0  0999 V2000
  -86.1281   28.3960    1.4876 C   0  0  0  0  0  0  0  0  0  0  0  0
  -85.6398   28.5766    2.7149 N   0  0  0  0  0  0  0  0  0  0  0  0
  -85.0888   29.7546    3.0138 C   0  0  0  0  0  0  0  0  0  0  0  0
  -84.9964   30.7933    2.1266 C   0  0  0  0  0  0  0  0  0  0  0  0
  -84.4259   31.9592    2.4935 F   0  0  0  0  0  0  0  0  0  0  0  0
  -85.5169   30.6014    0.8184 C   0  0  0  0  0  0  0  0  0  0  0  0
  -86.0444   29.4150    0.5972 N   0  0  0  0  0  0  0  0  0  0  0  0
  -86.7179   27.1708    1.1170 N   0  0  0  0  0  0  0  0  0  0  0  0
  -86.0347   26.4174    0.7803 H   0  0  0  0  0  0  0  0  0  0  0  0
  -90.1338   26.0249    2.0902 C   0  0  0  0  0  0  0  0  0  0  0  0
  -88.7432   26.1923    2.1447 C   0  0  0  0  0  0  0  0  0  0  0  0
  -88.0899   26.9039    1.1701 C   0  0  0  0  0  0  0  0  0  0  0  0
  -88.8476   27.4582    0.1169 C   0  0  0  0  0  0  0  0  0  0  0  0
  -90.2178   27.3053    0.0430 C   0  0  0  0  0  0  0  0  0  0  0  0
  -90.8197   26.5815    1.0512 C   0  0  0  0  0  0  0  0  0  0  0  0
  -90.9625   27.8924   -1.0300 N   0  0  0  0  0  0  0  0  0  0  0  0
  -90.7926   29.2763   -1.3510 C   0  0  0  0  0  0  0  0  0  0  0  0
  -90.3882   29.3508   -2.8120 C   0  0  0  0  0  0  0  0  0  0  0  0
  -91.3747   28.7498   -3.6525 N   0  0  0  0  0  0  0  0  0  0  0  0
  -92.3716   29.6292   -4.1689 C   0  0  0  0  0  0  0  0  0  0  0  0
  -91.8087   27.4472   -3.3012 C   0  0  0  0  0  0  0  0  0  0  0  0
  -91.8986   27.1377   -1.8436 C   0  0  0  0  0  0  0  0  0  0  0  0
  -90.1117   24.2987    3.8099 C   0  0  0  0  0  0  0  0  0  0  0  0
  -90.7876   25.3035    3.0819 O   0  0  0  0  0  0  0  0  0  0  0  0
  -85.4086   31.6785   -0.0767 N   0  0  0  0  0  0  0  0  0  0  0  0
  -84.4144   32.0637   -0.2512 H   0  0  0  0  0  0  0  0  0  0  0  0
  -86.4420   32.3310   -0.7859 C   0  0  0  0  0  0  0  0  0  0  0  0
  -87.7677   32.2290   -0.4749 C   0  0  0  0  0  0  0  0  0  0  0  0
  -88.7007   32.9232   -1.2558 C   0  0  0  0  0  0  0  0  0  0  0  0
  -88.2528   33.6817   -2.3058 C   0  0  0  0  0  0  0  0  0  0  0  0
  -89.1587   34.3765   -3.0907 O   0  0  0  0  0  0  0  0  0  0  0  0
  -88.9101   34.9283   -4.3457 C   0  0  0  0  0  0  0  0  0  0  0  0
  -89.7229   36.1951   -4.5342 C   0  0  0  0  0  0  0  0  0  0  0  0
  -89.3360   33.9237   -5.3900 C   0  0  0  0  0  0  0  0  0  0  0  0
  -87.4629   35.2932   -4.5183 C   0  0  0  0  0  0  0  0  0  0  0  0
  -87.1054   36.1918   -5.3405 O   0  0  0  0  0  0  0  0  0  0  0  0
  -86.5247   34.5884   -3.7229 N   0  0  0  0  0  0  0  0  0  0  0  0
  -86.9139   33.7798   -2.6134 C   0  0  0  0  0  0  0  0  0  0  0  0
  -86.0635   33.1158   -1.8610 N   0  0  0  0  0  0  0  0  0  0  0  0
  -85.5167   34.6639   -3.9571 H   0  0  0  0  0  0  0  0  0  0  0  0
 23 24  1  0  0  0
 24 10  1  0  0  0
 10 11  2  0  0  0
 11 12  1  0  0  0
 12  8  1  0  0  0
  8  1  1  0  0  0
  1  2  2  0  0  0
  2  3  1  0  0  0
  3  4  2  0  0  0
  4  5  1  0  0  0
  4  6  1  0  0  0
  6 25  1  0  0  0
 25 27  1  0  0  0
 27 28  2  0  0  0
 28 29  1  0  0  0
 29 30  2  0  0  0
 30 31  1  0  0  0
 31 32  1  0  0  0
 32 33  1  0  0  0
 32 34  1  0  0  0
 32 35  1  0  0  0
 35 36  2  0  0  0
 35 37  1  0  0  0
 37 38  1  0  0  0
 38 39  2  0  0  0
  6  7  2  0  0  0
 12 13  2  0  0  0
 13 14  1  0  0  0
 14 15  2  0  0  0
 14 16  1  0  0  0
 16 17  1  0  0  0
 17 18  1  0  0  0
 18 19  1  0  0  0
 19 20  1  0  0  0
 19 21  1  0  0  0
 21 22  1  0  0  0
 15 10  1  0  0  0
 22 16  1  0  0  0
  7  1  1  0  0  0
 39 27  1  0  0  0
 38 30  1  0  0  0
  8  9  1  0  0  0
 25 26  1  0  0  0
 37 40  1  0  0  0
M  END
> <minimizedAffinity>
-9.54243

> <CNNscore>
0.1636869609

> <CNNaffinity>
7.1772398949

> <CNN_VS>
1.1748205423

> <CNNaffinity_variance>
0.1229956746

$$$$
[H]c1nc(N([H])c2c([H])c(OC([H])([H])[H])c([H])c(N3C([H])([H])C([H])([H])N(C([H])([H])[H])C([H])([H])C3([H])[H])c2[H])nc(N([H])c2nc3c(c([H])c2[H])OC(C([H])([H])[H])(C([H])([H])[H])C(=O)N3[H])c1F


 40 44  0  0  0  0  0  0  0  0999 V2000
  -85.8507   27.6321    1.2085 C   0  0  0  0  0  0  0  0  0  0  0  0
  -84.9338   27.4202    2.1529 N   0  0  0  0  0  0  0  0  0  0  0  0
  -84.0671   28.3966    2.4291 C   0  0  0  0  0  0  0  0  0  0  0  0
  -84.0667   29.6096    1.7943 C   0  0  0  0  0  0  0  0  0  0  0  0
  -83.1609   30.5539    2.1216 F   0  0  0  0  0  0  0  0  0  0  0  0
  -85.0439   29.8360    0.7877 C   0  0  0  0  0  0  0  0  0  0  0  0
  -85.8637   28.8283    0.5704 N   0  0  0  0  0  0  0  0  0  0  0  0
  -86.7884   26.6346    0.8741 N   0  0  0  0  0  0  0  0  0  0  0  0
  -86.4796   25.9558    0.1049 H   0  0  0  0  0  0  0  0  0  0  0  0
  -89.7695   26.9005    3.1036 C   0  0  0  0  0  0  0  0  0  0  0  0
  -88.4683   27.1086    2.6259 C   0  0  0  0  0  0  0  0  0  0  0  0
  -88.0434   26.4935    1.4752 C   0  0  0  0  0  0  0  0  0  0  0  0
  -88.9428   25.6498    0.7896 C   0  0  0  0  0  0  0  0  0  0  0  0
  -90.2285   25.4300    1.2423 C   0  0  0  0  0  0  0  0  0  0  0  0
  -90.5997   26.0759    2.4031 C   0  0  0  0  0  0  0  0  0  0  0  0
  -91.1242   24.5803    0.5168 N   0  0  0  0  0  0  0  0  0  0  0  0
  -91.3270   24.7786   -0.8855 C   0  0  0  0  0  0  0  0  0  0  0  0
  -90.9888   23.4702   -1.5765 C   0  0  0  0  0  0  0  0  0  0  0  0
  -91.8039   22.4029   -1.0893 N   0  0  0  0  0  0  0  0  0  0  0  0
  -93.0065   22.1569   -1.8154 C   0  0  0  0  0  0  0  0  0  0  0  0
  -91.8765   22.2422    0.3169 C   0  0  0  0  0  0  0  0  0  0  0  0
  -91.8500   23.4877    1.1392 C   0  0  0  0  0  0  0  0  0  0  0  0
  -90.0465   26.8958    5.5246 C   0  0  0  0  0  0  0  0  0  0  0  0
  -90.1919   27.5281    4.2694 O   0  0  0  0  0  0  0  0  0  0  0  0
  -85.0232   31.0858    0.1469 N   0  0  0  0  0  0  0  0  0  0  0  0
  -84.0770   31.6073    0.1352 H   0  0  0  0  0  0  0  0  0  0  0  0
  -86.0905   31.7570   -0.4910 C   0  0  0  0  0  0  0  0  0  0  0  0
  -87.4065   31.5815   -0.1716 C   0  0  0  0  0  0  0  0  0  0  0  0
  -88.3760   32.3039   -0.8788 C   0  0  0  0  0  0  0  0  0  0  0  0
  -87.9725   33.1629   -1.8676 C   0  0  0  0  0  0  0  0  0  0  0  0
  -88.9152   33.8873   -2.5792 O   0  0  0  0  0  0  0  0  0  0  0  0
  -88.7069   34.5502   -3.7869 C   0  0  0  0  0  0  0  0  0  0  0  0
  -89.5666   35.7979   -3.8576 C   0  0  0  0  0  0  0  0  0  0  0  0
  -89.1147   33.6212   -4.9057 C   0  0  0  0  0  0  0  0  0  0  0  0
  -87.2764   34.9804   -3.9480 C   0  0  0  0  0  0  0  0  0  0  0  0
  -86.9643   35.9567   -4.6969 O   0  0  0  0  0  0  0  0  0  0  0  0
  -86.3011   34.2465   -3.2273 N   0  0  0  0  0  0  0  0  0  0  0  0
  -86.6432   33.3347   -2.1842 C   0  0  0  0  0  0  0  0  0  0  0  0
  -85.7577   32.6418   -1.5017 N   0  0  0  0  0  0  0  0  0  0  0  0
  -85.3003   34.3777   -3.4681 H   0  0  0  0  0  0  0  0  0  0  0  0
 23 24  1  0  0  0
 24 10  1  0  0  0
 10 11  2  0  0  0
 11 12  1  0  0  0
 12  8  1  0  0  0
  8  1  1  0  0  0
  1  2  2  0  0  0
  2  3  1  0  0  0
  3  4  2  0  0  0
  4  5  1  0  0  0
  4  6  1  0  0  0
  6 25  1  0  0  0
 25 27  1  0  0  0
 27 28  2  0  0  0
 28 29  1  0  0  0
 29 30  2  0  0  0
 30 31  1  0  0  0
 31 32  1  0  0  0
 32 33  1  0  0  0
 32 34  1  0  0  0
 32 35  1  0  0  0
 35 36  2  0  0  0
 35 37  1  0  0  0
 37 38  1  0  0  0
 38 39  2  0  0  0
  6  7  2  0  0  0
 12 13  2  0  0  0
 13 14  1  0  0  0
 14 15  2  0  0  0
 14 16  1  0  0  0
 16 17  1  0  0  0
 17 18  1  0  0  0
 18 19  1  0  0  0
 19 20  1  0  0  0
 19 21  1  0  0  0
 21 22  1  0  0  0
 15 10  1  0  0  0
 22 16  1  0  0  0
  7  1  1  0  0  0
 39 27  1  0  0  0
 38 30  1  0  0  0
  8  9  1  0  0  0
 25 26  1  0  0  0
 37 40  1  0  0  0
M  END
> <minimizedAffinity>
-9.89373

> <CNNscore>
0.1434295624

> <CNNaffinity>
7.0684866905

> <CNN_VS>
1.0138299465

> <CNNaffinity_variance>
0.0400010608

$$$$
[H]c1nc(N([H])c2c([H])c(OC([H])([H])[H])c([H])c(N3C([H])([H])C([H])([H])N(C([H])([H])[H])C([H])([H])C3([H])[H])c2[H])nc(N([H])c2nc3c(c([H])c2[H])OC(C([H])([H])[H])(C([H])([H])[H])C(=O)N3[H])c1F


 40 44  0  0  0  0  0  0  0  0999 V2000
  -85.3906   27.7909    1.9290 C   0  0  0  0  0  0  0  0  0  0  0  0
  -84.0774   27.6529    2.1132 N   0  0  0  0  0  0  0  0  0  0  0  0
  -83.3135   28.7468    2.0942 C   0  0  0  0  0  0  0  0  0  0  0  0
  -83.8049   30.0091    1.8952 C   0  0  0  0  0  0  0  0  0  0  0  0
  -82.9765   31.0735    1.8869 F   0  0  0  0  0  0  0  0  0  0  0  0
  -85.2045   30.1568    1.6990 C   0  0  0  0  0  0  0  0  0  0  0  0
  -85.8931   29.0344    1.7308 N   0  0  0  0  0  0  0  0  0  0  0  0
  -86.2437   26.6691    1.9363 N   0  0  0  0  0  0  0  0  0  0  0  0
  -85.8853   25.8253    2.4906 H   0  0  0  0  0  0  0  0  0  0  0  0
  -89.7793   25.9663    0.9696 C   0  0  0  0  0  0  0  0  0  0  0  0
  -88.5868   25.9131    1.7045 C   0  0  0  0  0  0  0  0  0  0  0  0
  -87.4813   26.6108    1.2872 C   0  0  0  0  0  0  0  0  0  0  0  0
  -87.5733   27.3771    0.1062 C   0  0  0  0  0  0  0  0  0  0  0  0
  -88.7372   27.4433   -0.6335 C   0  0  0  0  0  0  0  0  0  0  0  0
  -89.8157   26.7225   -0.1647 C   0  0  0  0  0  0  0  0  0  0  0  0
  -88.8054   28.2420   -1.8201 N   0  0  0  0  0  0  0  0  0  0  0  0
  -90.0737   28.6552   -2.3376 C   0  0  0  0  0  0  0  0  0  0  0  0
  -90.0504   30.1704   -2.4232 C   0  0  0  0  0  0  0  0  0  0  0  0
  -88.9856   30.6242   -3.2606 N   0  0  0  0  0  0  0  0  0  0  0  0
  -89.3164   30.8268   -4.6330 C   0  0  0  0  0  0  0  0  0  0  0  0
  -87.6952   30.1006   -2.9973 C   0  0  0  0  0  0  0  0  0  0  0  0
  -87.6248   28.6806   -2.5425 C   0  0  0  0  0  0  0  0  0  0  0  0
  -91.9503   24.9602    0.5091 C   0  0  0  0  0  0  0  0  0  0  0  0
  -90.8945   25.2574    1.3998 O   0  0  0  0  0  0  0  0  0  0  0  0
  -85.6869   31.4599    1.4934 N   0  0  0  0  0  0  0  0  0  0  0  0
  -86.0260   31.9935    2.3695 H   0  0  0  0  0  0  0  0  0  0  0  0
  -85.7875   32.1713    0.2766 C   0  0  0  0  0  0  0  0  0  0  0  0
  -84.7147   32.5959   -0.4538 C   0  0  0  0  0  0  0  0  0  0  0  0
  -84.9426   33.2957   -1.6456 C   0  0  0  0  0  0  0  0  0  0  0  0
  -86.2340   33.5311   -2.0396 C   0  0  0  0  0  0  0  0  0  0  0  0
  -86.4817   34.2210   -3.2153 O   0  0  0  0  0  0  0  0  0  0  0  0
  -87.6917   34.7993   -3.5934 C   0  0  0  0  0  0  0  0  0  0  0  0
  -87.8603   34.7303   -5.0993 C   0  0  0  0  0  0  0  0  0  0  0  0
  -87.6649   36.2513   -3.1786 C   0  0  0  0  0  0  0  0  0  0  0  0
  -88.8651   34.0920   -2.9770 C   0  0  0  0  0  0  0  0  0  0  0  0
  -90.0136   34.1320   -3.5162 O   0  0  0  0  0  0  0  0  0  0  0  0
  -88.6265   33.3838   -1.7725 N   0  0  0  0  0  0  0  0  0  0  0  0
  -87.3111   33.0996   -1.2976 C   0  0  0  0  0  0  0  0  0  0  0  0
  -87.0634   32.4455   -0.1836 N   0  0  0  0  0  0  0  0  0  0  0  0
  -89.4398   33.0601   -1.2153 H   0  0  0  0  0  0  0  0  0  0  0  0
 23 24  1  0  0  0
 24 10  1  0  0  0
 10 11  2  0  0  0
 11 12  1  0  0  0
 12  8  1  0  0  0
  8  1  1  0  0  0
  1  2  2  0  0  0
  2  3  1  0  0  0
  3  4  2  0  0  0
  4  5  1  0  0  0
  4  6  1  0  0  0
  6 25  1  0  0  0
 25 27  1  0  0  0
 27 28  2  0  0  0
 28 29  1  0  0  0
 29 30  2  0  0  0
 30 31  1  0  0  0
 31 32  1  0  0  0
 32 33  1  0  0  0
 32 34  1  0  0  0
 32 35  1  0  0  0
 35 36  2  0  0  0
 35 37  1  0  0  0
 37 38  1  0  0  0
 38 39  2  0  0  0
  6  7  2  0  0  0
 12 13  2  0  0  0
 13 14  1  0  0  0
 14 15  2  0  0  0
 14 16  1  0  0  0
 16 17  1  0  0  0
 17 18  1  0  0  0
 18 19  1  0  0  0
 19 20  1  0  0  0
 19 21  1  0  0  0
 21 22  1  0  0  0
 15 10  1  0  0  0
 22 16  1  0  0  0
  7  1  1  0  0  0
 39 27  1  0  0  0
 38 30  1  0  0  0
  8  9  1  0  0  0
 25 26  1  0  0  0
 37 40  1  0  0  0
M  END
> <minimizedAffinity>
-8.83064

> <CNNscore>
0.1080708578

> <CNNaffinity>
7.1235213280

> <CNN_VS>
0.7698450685

> <CNNaffinity_variance>
0.3704235852

$$$$
[H]c1nc(N([H])c2c([H])c(OC([H])([H])[H])c([H])c(N3C([H])([H])C([H])([H])N(C([H])([H])[H])C([H])([H])C3([H])[H])c2[H])nc(N([H])c2nc3c(c([H])c2[H])OC(C([H])([H])[H])(C([H])([H])[H])C(=O)N3[H])c1F


 40 44  0  0  0  0  0  0  0  0999 V2000
  -84.6878   31.1201    0.6919 C   0  0  0  0  0  0  0  0  0  0  0  0
  -83.3940   31.2488    0.9868 N   0  0  0  0  0  0  0  0  0  0  0  0
  -82.7730   30.2300    1.5844 C   0  0  0  0  0  0  0  0  0  0  0  0
  -83.3927   29.0543    1.9132 C   0  0  0  0  0  0  0  0  0  0  0  0
  -82.7058   28.0634    2.5178 F   0  0  0  0  0  0  0  0  0  0  0  0
  -84.7717   28.9166    1.5990 C   0  0  0  0  0  0  0  0  0  0  0  0
  -85.3162   29.9618    1.0109 N   0  0  0  0  0  0  0  0  0  0  0  0
  -85.3939   32.1655    0.0637 N   0  0  0  0  0  0  0  0  0  0  0  0
  -84.8910   33.1114    0.0463 H   0  0  0  0  0  0  0  0  0  0  0  0
  -88.8256   31.0448   -0.8830 C   0  0  0  0  0  0  0  0  0  0  0  0
  -87.5751   31.0432   -0.2498 C   0  0  0  0  0  0  0  0  0  0  0  0
  -86.6600   32.0307   -0.5153 C   0  0  0  0  0  0  0  0  0  0  0  0
  -87.0060   33.0410   -1.4373 C   0  0  0  0  0  0  0  0  0  0  0  0
  -88.2314   33.0619   -2.0730 C   0  0  0  0  0  0  0  0  0  0  0  0
  -89.1107   32.0445   -1.7657 C   0  0  0  0  0  0  0  0  0  0  0  0
  -88.5605   34.1089   -2.9929 N   0  0  0  0  0  0  0  0  0  0  0  0
  -87.6649   35.2086   -3.1819 C   0  0  0  0  0  0  0  0  0  0  0  0
  -87.3310   35.2650   -4.6614 C   0  0  0  0  0  0  0  0  0  0  0  0
  -88.5103   35.4262   -5.4514 N   0  0  0  0  0  0  0  0  0  0  0  0
  -88.8714   36.7701   -5.7634 C   0  0  0  0  0  0  0  0  0  0  0  0
  -89.5802   34.5326   -5.1959 C   0  0  0  0  0  0  0  0  0  0  0  0
  -89.7817   34.1117   -3.7780 C   0  0  0  0  0  0  0  0  0  0  0  0
  -90.8851   29.8607   -1.4250 C   0  0  0  0  0  0  0  0  0  0  0  0
  -89.7467   30.0414   -0.6077 O   0  0  0  0  0  0  0  0  0  0  0  0
  -85.3884   27.7038    1.9481 N   0  0  0  0  0  0  0  0  0  0  0  0
  -84.7577   26.9549    2.4049 H   0  0  0  0  0  0  0  0  0  0  0  0
  -86.7409   27.3319    1.7776 C   0  0  0  0  0  0  0  0  0  0  0  0
  -87.7905   27.9582    2.3863 C   0  0  0  0  0  0  0  0  0  0  0  0
  -89.0893   27.4951    2.1398 C   0  0  0  0  0  0  0  0  0  0  0  0
  -89.2642   26.4292    1.2963 C   0  0  0  0  0  0  0  0  0  0  0  0
  -90.5404   25.9554    1.0386 O   0  0  0  0  0  0  0  0  0  0  0  0
  -90.8648   24.7257    0.4694 C   0  0  0  0  0  0  0  0  0  0  0  0
  -92.1241   24.8487   -0.3671 C   0  0  0  0  0  0  0  0  0  0  0  0
  -91.1253   23.7470    1.5898 C   0  0  0  0  0  0  0  0  0  0  0  0
  -89.7735   24.2229   -0.4326 C   0  0  0  0  0  0  0  0  0  0  0  0
  -90.0227   23.4105   -1.3756 O   0  0  0  0  0  0  0  0  0  0  0  0
  -88.4622   24.6978   -0.1789 N   0  0  0  0  0  0  0  0  0  0  0  0
  -88.2004   25.8024    0.6859 C   0  0  0  0  0  0  0  0  0  0  0  0
  -86.9938   26.2613    0.9380 N   0  0  0  0  0  0  0  0  0  0  0  0
  -87.6627   24.2236   -0.6399 H   0  0  0  0  0  0  0  0  0  0  0  0
 23 24  1  0  0  0
 24 10  1  0  0  0
 10 11  2  0  0  0
 11 12  1  0  0  0
 12  8  1  0  0  0
  8  1  1  0  0  0
  1  2  2  0  0  0
  2  3  1  0  0  0
  3  4  2  0  0  0
  4  5  1  0  0  0
  4  6  1  0  0  0
  6 25  1  0  0  0
 25 27  1  0  0  0
 27 28  2  0  0  0
 28 29  1  0  0  0
 29 30  2  0  0  0
 30 31  1  0  0  0
 31 32  1  0  0  0
 32 33  1  0  0  0
 32 34  1  0  0  0
 32 35  1  0  0  0
 35 36  2  0  0  0
 35 37  1  0  0  0
 37 38  1  0  0  0
 38 39  2  0  0  0
  6  7  2  0  0  0
 12 13  2  0  0  0
 13 14  1  0  0  0
 14 15  2  0  0  0
 14 16  1  0  0  0
 16 17  1  0  0  0
 17 18  1  0  0  0
 18 19  1  0  0  0
 19 20  1  0  0  0
 19 21  1  0  0  0
 21 22  1  0  0  0
 15 10  1  0  0  0
 22 16  1  0  0  0
  7  1  1  0  0  0
 39 27  1  0  0  0
 38 30  1  0  0  0
  8  9  1  0  0  0
 25 26  1  0  0  0
 37 40  1  0  0  0
M  END
> <minimizedAffinity>
-9.70759

> <CNNscore>
0.0993008837

> <CNNaffinity>
7.0994720459

> <CNN_VS>
0.7049838305

> <CNNaffinity_variance>
0.1690896302

$$$$
[H]c1nc(N([H])c2c([H])c(OC([H])([H])[H])c([H])c(N3C([H])([H])C([H])([H])N(C([H])([H])[H])C([H])([H])C3([H])[H])c2[H])nc(N([H])c2nc3c(c([H])c2[H])OC(C([H])([H])[H])(C([H])([H])[H])C(=O)N3[H])c1F


 40 44  0  0  0  0  0  0  0  0999 V2000
  -85.5426   27.5881    1.7191 C   0  0  0  0  0  0  0  0  0  0  0  0
  -84.4223   27.5924    2.4418 N   0  0  0  0  0  0  0  0  0  0  0  0
  -83.6482   28.6790    2.4097 C   0  0  0  0  0  0  0  0  0  0  0  0
  -83.9413   29.7950    1.6728 C   0  0  0  0  0  0  0  0  0  0  0  0
  -83.1143   30.8604    1.6843 F   0  0  0  0  0  0  0  0  0  0  0  0
  -85.1354   29.7909    0.9024 C   0  0  0  0  0  0  0  0  0  0  0  0
  -85.8472   28.6857    0.9839 N   0  0  0  0  0  0  0  0  0  0  0  0
  -86.3953   26.4660    1.7135 N   0  0  0  0  0  0  0  0  0  0  0  0
  -85.9033   25.5179    1.6306 H   0  0  0  0  0  0  0  0  0  0  0  0
  -89.9090   27.1956    2.7384 C   0  0  0  0  0  0  0  0  0  0  0  0
  -88.5078   27.1880    2.7772 C   0  0  0  0  0  0  0  0  0  0  0  0
  -87.7891   26.5297    1.8113 C   0  0  0  0  0  0  0  0  0  0  0  0
  -88.4911   25.8629    0.7850 C   0  0  0  0  0  0  0  0  0  0  0  0
  -89.8705   25.8568    0.7276 C   0  0  0  0  0  0  0  0  0  0  0  0
  -90.5391   26.5362    1.7246 C   0  0  0  0  0  0  0  0  0  0  0  0
  -90.5554   25.1841   -0.3350 N   0  0  0  0  0  0  0  0  0  0  0  0
  -89.8584   24.8397   -1.5361 C   0  0  0  0  0  0  0  0  0  0  0  0
  -90.0056   23.3410   -1.7254 C   0  0  0  0  0  0  0  0  0  0  0  0
  -91.3809   22.9633   -1.8077 N   0  0  0  0  0  0  0  0  0  0  0  0
  -91.9327   22.9053   -3.1215 C   0  0  0  0  0  0  0  0  0  0  0  0
  -92.2397   23.4431   -0.7876 C   0  0  0  0  0  0  0  0  0  0  0  0
  -91.9555   24.8084   -0.2553 C   0  0  0  0  0  0  0  0  0  0  0  0
  -90.0811   28.0695    5.0066 C   0  0  0  0  0  0  0  0  0  0  0  0
  -90.6290   27.8656    3.7202 O   0  0  0  0  0  0  0  0  0  0  0  0
  -85.4150   30.9445    0.1514 N   0  0  0  0  0  0  0  0  0  0  0  0
  -84.6450   31.7019    0.1243 H   0  0  0  0  0  0  0  0  0  0  0  0
  -86.5850   31.2466   -0.5811 C   0  0  0  0  0  0  0  0  0  0  0  0
  -87.0403   32.5135   -0.8098 C   0  0  0  0  0  0  0  0  0  0  0  0
  -88.2169   32.6856   -1.5501 C   0  0  0  0  0  0  0  0  0  0  0  0
  -88.8724   31.5777   -2.0205 C   0  0  0  0  0  0  0  0  0  0  0  0
  -90.0377   31.7256   -2.7551 O   0  0  0  0  0  0  0  0  0  0  0  0
  -90.9690   30.7277   -3.0349 C   0  0  0  0  0  0  0  0  0  0  0  0
  -91.5951   30.9591   -4.3971 C   0  0  0  0  0  0  0  0  0  0  0  0
  -92.0556   30.7964   -1.9882 C   0  0  0  0  0  0  0  0  0  0  0  0
  -90.3372   29.3648   -3.0565 C   0  0  0  0  0  0  0  0  0  0  0  0
  -90.8532   28.4118   -3.7174 O   0  0  0  0  0  0  0  0  0  0  0  0
  -89.1453   29.1986   -2.3073 N   0  0  0  0  0  0  0  0  0  0  0  0
  -88.4070   30.3028   -1.7857 C   0  0  0  0  0  0  0  0  0  0  0  0
  -87.2997   30.1752   -1.0874 N   0  0  0  0  0  0  0  0  0  0  0  0
  -88.7971   28.2371   -2.1318 H   0  0  0  0  0  0  0  0  0  0  0  0
 23 24  1  0  0  0
 24 10  1  0  0  0
 10 11  2  0  0  0
 11 12  1  0  0  0
 12  8  1  0  0  0
  8  1  1  0  0  0
  1  2  2  0  0  0
  2  3  1  0  0  0
  3  4  2  0  0  0
  4  5  1  0  0  0
  4  6  1  0  0  0
  6 25  1  0  0  0
 25 27  1  0  0  0
 27 28  2  0  0  0
 28 29  1  0  0  0
 29 30  2  0  0  0
 30 31  1  0  0  0
 31 32  1  0  0  0
 32 33  1  0  0  0
 32 34  1  0  0  0
 32 35  1  0  0  0
 35 36  2  0  0  0
 35 37  1  0  0  0
 37 38  1  0  0  0
 38 39  2  0  0  0
  6  7  2  0  0  0
 12 13  2  0  0  0
 13 14  1  0  0  0
 14 15  2  0  0  0
 14 16  1  0  0  0
 16 17  1  0  0  0
 17 18  1  0  0  0
 18 19  1  0  0  0
 19 20  1  0  0  0
 19 21  1  0  0  0
 21 22  1  0  0  0
 15 10  1  0  0  0
 22 16  1  0  0  0
  7  1  1  0  0  0
 39 27  1  0  0  0
 38 30  1  0  0  0
  8  9  1  0  0  0
 25 26  1  0  0  0
 37 40  1  0  0  0
M  END
> <minimizedAffinity>
-9.22265

> <CNNscore>
0.0872827247

> <CNNaffinity>
6.8392972946

> <CNN_VS>
0.5969524980

> <CNNaffinity_variance>
0.1756317914

$$$$
[H]Oc1c([H])c([H])c(N([H])c2nc([H])c(F)c(N([H])c3c([H])c([H])c4c(c3[H])OC(F)(F)O4)n2)c([H])c1[H]


 30 33  0  0  0  0  0  0  0  0999 V2000
  -85.4302   32.2801    0.1045 C   0  0  0  0  0  0  0  0  0  0  0  0
  -85.5302   33.4049   -0.5881 N   0  0  0  0  0  0  0  0  0  0  0  0
  -86.4659   33.6445   -1.4983 C   0  0  0  0  0  0  0  0  0  0  0  0
  -87.3921   32.6862   -1.7522 C   0  0  0  0  0  0  0  0  0  0  0  0
  -88.3505   32.8847   -2.6596 F   0  0  0  0  0  0  0  0  0  0  0  0
  -87.3357   31.4719   -1.0478 C   0  0  0  0  0  0  0  0  0  0  0  0
  -86.3579   31.3355   -0.1581 N   0  0  0  0  0  0  0  0  0  0  0  0
  -84.4585   31.9968    1.0686 N   0  0  0  0  0  0  0  0  0  0  0  0
  -83.9143   32.8348    1.4564 H   0  0  0  0  0  0  0  0  0  0  0  0
  -83.2348   26.9338    3.2647 O   0  0  0  0  0  0  0  0  0  0  0  0
  -83.5061   28.1879    2.7169 C   0  0  0  0  0  0  0  0  0  0  0  0
  -82.5608   28.9048    2.0283 C   0  0  0  0  0  0  0  0  0  0  0  0
  -82.8512   30.1700    1.4812 C   0  0  0  0  0  0  0  0  0  0  0  0
  -84.0839   30.7454    1.6070 C   0  0  0  0  0  0  0  0  0  0  0  0
  -85.0309   29.9880    2.3172 C   0  0  0  0  0  0  0  0  0  0  0  0
  -84.7524   28.7542    2.8526 C   0  0  0  0  0  0  0  0  0  0  0  0
  -82.8771   26.8706    4.2239 H   0  0  0  0  0  0  0  0  0  0  0  0
  -88.3362   30.5179   -1.3330 N   0  0  0  0  0  0  0  0  0  0  0  0
  -88.6667   30.4081   -2.3498 H   0  0  0  0  0  0  0  0  0  0  0  0
  -88.9260   29.6914   -0.3566 C   0  0  0  0  0  0  0  0  0  0  0  0
  -90.3018   29.8926   -0.1358 C   0  0  0  0  0  0  0  0  0  0  0  0
  -90.9421   29.1047    0.7818 C   0  0  0  0  0  0  0  0  0  0  0  0
  -90.3139   28.1096    1.5157 C   0  0  0  0  0  0  0  0  0  0  0  0
  -90.7665   27.2120    2.4793 O   0  0  0  0  0  0  0  0  0  0  0  0
  -89.6238   26.7311    3.1605 C   0  0  0  0  0  0  0  0  0  0  0  0
  -89.3258   27.5078    4.2654 F   0  0  0  0  0  0  0  0  0  0  0  0
  -89.7745   25.4070    3.4703 F   0  0  0  0  0  0  0  0  0  0  0  0
  -88.6152   26.8815    2.1482 O   0  0  0  0  0  0  0  0  0  0  0  0
  -88.9718   27.9110    1.3018 C   0  0  0  0  0  0  0  0  0  0  0  0
  -88.2962   28.7069    0.3659 C   0  0  0  0  0  0  0  0  0  0  0  0
 10 11  1  0  0  0
 11 12  2  0  0  0
 12 13  1  0  0  0
 13 14  2  0  0  0
 14  8  1  0  0  0
  8  1  1  0  0  0
  1  2  2  0  0  0
  2  3  1  0  0  0
  3  4  2  0  0  0
  4  5  1  0  0  0
  4  6  1  0  0  0
  6 18  1  0  0  0
 18 20  1  0  0  0
 20 21  2  0  0  0
 21 22  1  0  0  0
 22 23  2  0  0  0
 23 24  1  0  0  0
 24 25  1  0  0  0
 25 26  1  0  0  0
 25 27  1  0  0  0
 25 28  1  0  0  0
 28 29  1  0  0  0
 29 30  2  0  0  0
  6  7  2  0  0  0
 14 15  1  0  0  0
 15 16  2  0  0  0
 16 11  1  0  0  0
  7  1  1  0  0  0
 30 20  1  0  0  0
 29 23  1  0  0  0
 10 17  1  0  0  0
  8  9  1  0  0  0
 18 19  1  0  0  0
M  END
> <minimizedAffinity>
-10.11584

> <CNNscore>
0.7392050624

> <CNNaffinity>
7.2047472000

> <CNN_VS>
5.3257856369

> <CNNaffinity_variance>
0.1237630621

$$$$
[H]Oc1c([H])c([H])c(N([H])c2nc([H])c(F)c(N([H])c3c([H])c([H])c4c(c3[H])OC(F)(F)O4)n2)c([H])c1[H]


 30 33  0  0  0  0  0  0  0  0999 V2000
  -84.9680   32.0538    0.2594 C   0  0  0  0  0  0  0  0  0  0  0  0
  -83.8144   32.0906    0.9096 N   0  0  0  0  0  0  0  0  0  0  0  0
  -83.2261   31.0327    1.4537 C   0  0  0  0  0  0  0  0  0  0  0  0
  -83.8299   29.8223    1.3487 C   0  0  0  0  0  0  0  0  0  0  0  0
  -83.2738   28.7321    1.8812 F   0  0  0  0  0  0  0  0  0  0  0  0
  -85.0559   29.7223    0.6698 C   0  0  0  0  0  0  0  0  0  0  0  0
  -85.5577   30.8435    0.1624 N   0  0  0  0  0  0  0  0  0  0  0  0
  -85.6132   33.1477   -0.3244 N   0  0  0  0  0  0  0  0  0  0  0  0
  -85.2507   34.1176   -0.0473 H   0  0  0  0  0  0  0  0  0  0  0  0
  -89.7449   33.1680   -4.1823 O   0  0  0  0  0  0  0  0  0  0  0  0
  -88.7470   33.1627   -3.2072 C   0  0  0  0  0  0  0  0  0  0  0  0
  -89.0199   32.9300   -1.8833 C   0  0  0  0  0  0  0  0  0  0  0  0
  -88.0003   32.9280   -0.9112 C   0  0  0  0  0  0  0  0  0  0  0  0
  -86.6930   33.1560   -1.2356 C   0  0  0  0  0  0  0  0  0  0  0  0
  -86.4443   33.3914   -2.5985 C   0  0  0  0  0  0  0  0  0  0  0  0
  -87.4351   33.3946   -3.5499 C   0  0  0  0  0  0  0  0  0  0  0  0
  -90.2260   34.0460   -4.4048 H   0  0  0  0  0  0  0  0  0  0  0  0
  -85.6303   28.4369    0.5691 N   0  0  0  0  0  0  0  0  0  0  0  0
  -85.0499   27.6478    0.1270 H   0  0  0  0  0  0  0  0  0  0  0  0
  -86.9268   28.1248    1.0231 C   0  0  0  0  0  0  0  0  0  0  0  0
  -87.8979   27.9421    0.0204 C   0  0  0  0  0  0  0  0  0  0  0  0
  -89.1727   27.6115    0.3927 C   0  0  0  0  0  0  0  0  0  0  0  0
  -89.5720   27.4434    1.7102 C   0  0  0  0  0  0  0  0  0  0  0  0
  -90.7911   27.1150    2.2976 O   0  0  0  0  0  0  0  0  0  0  0  0
  -90.7037   27.4881    3.6593 C   0  0  0  0  0  0  0  0  0  0  0  0
  -91.1460   28.7828    3.8615 F   0  0  0  0  0  0  0  0  0  0  0  0
  -91.3549   26.5781    4.4466 F   0  0  0  0  0  0  0  0  0  0  0  0
  -89.2869   27.3960    3.8805 O   0  0  0  0  0  0  0  0  0  0  0  0
  -88.6264   27.6206    2.6903 C   0  0  0  0  0  0  0  0  0  0  0  0
  -87.3141   27.9593    2.3310 C   0  0  0  0  0  0  0  0  0  0  0  0
 10 11  1  0  0  0
 11 12  2  0  0  0
 12 13  1  0  0  0
 13 14  2  0  0  0
 14  8  1  0  0  0
  8  1  1  0  0  0
  1  2  2  0  0  0
  2  3  1  0  0  0
  3  4  2  0  0  0
  4  5  1  0  0  0
  4  6  1  0  0  0
  6 18  1  0  0  0
 18 20  1  0  0  0
 20 21  2  0  0  0
 21 22  1  0  0  0
 22 23  2  0  0  0
 23 24  1  0  0  0
 24 25  1  0  0  0
 25 26  1  0  0  0
 25 27  1  0  0  0
 25 28  1  0  0  0
 28 29  1  0  0  0
 29 30  2  0  0  0
  6  7  2  0  0  0
 14 15  1  0  0  0
 15 16  2  0  0  0
 16 11  1  0  0  0
  7  1  1  0  0  0
 30 20  1  0  0  0
 29 23  1  0  0  0
 10 17  1  0  0  0
  8  9  1  0  0  0
 18 19  1  0  0  0
M  END
> <minimizedAffinity>
-8.70738

> <CNNscore>
0.5979059935

> <CNNaffinity>
6.8591666222

> <CNN_VS>
4.1011366844

> <CNNaffinity_variance>
0.0645641983

$$$$
[H]Oc1c([H])c([H])c(N([H])c2nc([H])c(F)c(N([H])c3c([H])c([H])c4c(c3[H])OC(F)(F)O4)n2)c([H])c1[H]


 30 33  0  0  0  0  0  0  0  0999 V2000
  -85.3365   27.3802    1.9980 C   0  0  0  0  0  0  0  0  0  0  0  0
  -84.2747   26.9704    2.6759 N   0  0  0  0  0  0  0  0  0  0  0  0
  -83.1302   27.6379    2.7525 C   0  0  0  0  0  0  0  0  0  0  0  0
  -83.0188   28.8222    2.0998 C   0  0  0  0  0  0  0  0  0  0  0  0
  -81.8861   29.5264    2.1495 F   0  0  0  0  0  0  0  0  0  0  0  0
  -84.1129   29.3072    1.3642 C   0  0  0  0  0  0  0  0  0  0  0  0
  -85.2118   28.5598    1.3536 N   0  0  0  0  0  0  0  0  0  0  0  0
  -86.5546   26.7021    1.8975 N   0  0  0  0  0  0  0  0  0  0  0  0
  -86.5208   25.6398    2.0354 H   0  0  0  0  0  0  0  0  0  0  0  0
  -91.7409   28.8090    1.1118 O   0  0  0  0  0  0  0  0  0  0  0  0
  -90.4564   28.2895    1.2744 C   0  0  0  0  0  0  0  0  0  0  0  0
  -89.5515   28.2416    0.2447 C   0  0  0  0  0  0  0  0  0  0  0  0
  -88.2580   27.7137    0.4258 C   0  0  0  0  0  0  0  0  0  0  0  0
  -87.8398   27.2252    1.6311 C   0  0  0  0  0  0  0  0  0  0  0  0
  -88.7881   27.2872    2.6663 C   0  0  0  0  0  0  0  0  0  0  0  0
  -90.0504   27.8007    2.4945 C   0  0  0  0  0  0  0  0  0  0  0  0
  -92.5036   28.1850    0.8276 H   0  0  0  0  0  0  0  0  0  0  0  0
  -83.9526   30.5546    0.7232 N   0  0  0  0  0  0  0  0  0  0  0  0
  -82.9679   30.9818    0.6691 H   0  0  0  0  0  0  0  0  0  0  0  0
  -85.0147   31.2738    0.1409 C   0  0  0  0  0  0  0  0  0  0  0  0
  -84.7989   32.6551   -0.0248 C   0  0  0  0  0  0  0  0  0  0  0  0
  -85.7813   33.4083   -0.6082 C   0  0  0  0  0  0  0  0  0  0  0  0
  -86.9892   32.8905   -1.0514 C   0  0  0  0  0  0  0  0  0  0  0  0
  -88.1021   33.4655   -1.6594 O   0  0  0  0  0  0  0  0  0  0  0  0
  -89.1709   32.5516   -1.5063 C   0  0  0  0  0  0  0  0  0  0  0  0
  -89.8867   32.7952   -0.3483 F   0  0  0  0  0  0  0  0  0  0  0  0
  -89.9597   32.5474   -2.6243 F   0  0  0  0  0  0  0  0  0  0  0  0
  -88.4586   31.3074   -1.4097 O   0  0  0  0  0  0  0  0  0  0  0  0
  -87.2020   31.5432   -0.8914 C   0  0  0  0  0  0  0  0  0  0  0  0
  -86.2085   30.7527   -0.2963 C   0  0  0  0  0  0  0  0  0  0  0  0
 10 11  1  0  0  0
 11 12  2  0  0  0
 12 13  1  0  0  0
 13 14  2  0  0  0
 14  8  1  0  0  0
  8  1  1  0  0  0
  1  2  2  0  0  0
  2  3  1  0  0  0
  3  4  2  0  0  0
  4  5  1  0  0  0
  4  6  1  0  0  0
  6 18  1  0  0  0
 18 20  1  0  0  0
 20 21  2  0  0  0
 21 22  1  0  0  0
 22 23  2  0  0  0
 23 24  1  0  0  0
 24 25  1  0  0  0
 25 26  1  0  0  0
 25 27  1  0  0  0
 25 28  1  0  0  0
 28 29  1  0  0  0
 29 30  2  0  0  0
  6  7  2  0  0  0
 14 15  1  0  0  0
 15 16  2  0  0  0
 16 11  1  0  0  0
  7  1  1  0  0  0
 30 20  1  0  0  0
 29 23  1  0  0  0
 10 17  1  0  0  0
  8  9  1  0  0  0
 18 19  1  0  0  0
M  END
> <minimizedAffinity>
-9.33040

> <CNNscore>
0.4775805771

> <CNNaffinity>
6.7736115456

> <CNN_VS>
3.2349452972

> <CNNaffinity_variance>
0.0250350237

$$$$
[H]Oc1c([H])c([H])c(N([H])c2nc([H])c(F)c(N([H])c3c([H])c([H])c4c(c3[H])OC(F)(F)O4)n2)c([H])c1[H]


 30 33  0  0  0  0  0  0  0  0999 V2000
  -84.5519   32.7804   -0.4448 C   0  0  0  0  0  0  0  0  0  0  0  0
  -83.2354   32.7023   -0.5710 N   0  0  0  0  0  0  0  0  0  0  0  0
  -82.4662   31.8572    0.1038 C   0  0  0  0  0  0  0  0  0  0  0  0
  -83.0468   31.0073    0.9877 C   0  0  0  0  0  0  0  0  0  0  0  0
  -82.3112   30.1412    1.6878 F   0  0  0  0  0  0  0  0  0  0  0  0
  -84.4401   31.0448    1.1637 C   0  0  0  0  0  0  0  0  0  0  0  0
  -85.1163   31.9293    0.4378 N   0  0  0  0  0  0  0  0  0  0  0  0
  -85.3896   33.6576   -1.1395 N   0  0  0  0  0  0  0  0  0  0  0  0
  -85.0344   34.6620   -1.2574 H   0  0  0  0  0  0  0  0  0  0  0  0
  -90.5691   32.6422   -3.1633 O   0  0  0  0  0  0  0  0  0  0  0  0
  -89.2800   32.8951   -2.6935 C   0  0  0  0  0  0  0  0  0  0  0  0
  -88.2721   33.3242   -3.5191 C   0  0  0  0  0  0  0  0  0  0  0  0
  -86.9757   33.5752   -3.0284 C   0  0  0  0  0  0  0  0  0  0  0  0
  -86.6570   33.4057   -1.7109 C   0  0  0  0  0  0  0  0  0  0  0  0
  -87.7091   32.9653   -0.8900 C   0  0  0  0  0  0  0  0  0  0  0  0
  -88.9746   32.7190   -1.3638 C   0  0  0  0  0  0  0  0  0  0  0  0
  -90.8072   31.7022   -3.4973 H   0  0  0  0  0  0  0  0  0  0  0  0
  -84.9962   30.1243    2.0780 N   0  0  0  0  0  0  0  0  0  0  0  0
  -84.8070   30.2634    3.1267 H   0  0  0  0  0  0  0  0  0  0  0  0
  -85.7954   29.0299    1.6932 C   0  0  0  0  0  0  0  0  0  0  0  0
  -85.3432   27.7650    2.1145 C   0  0  0  0  0  0  0  0  0  0  0  0
  -86.0875   26.6616    1.7960 C   0  0  0  0  0  0  0  0  0  0  0  0
  -87.2721   26.7120    1.0766 C   0  0  0  0  0  0  0  0  0  0  0  0
  -88.1671   25.7331    0.6525 O   0  0  0  0  0  0  0  0  0  0  0  0
  -88.9521   26.3115   -0.3722 C   0  0  0  0  0  0  0  0  0  0  0  0
  -88.3933   26.1035   -1.6201 F   0  0  0  0  0  0  0  0  0  0  0  0
  -90.2443   25.8692   -0.2913 F   0  0  0  0  0  0  0  0  0  0  0  0
  -88.8914   27.7020   -0.0150 O   0  0  0  0  0  0  0  0  0  0  0  0
  -87.7157   27.9448    0.6648 C   0  0  0  0  0  0  0  0  0  0  0  0
  -86.9687   29.0886    0.9806 C   0  0  0  0  0  0  0  0  0  0  0  0
 10 11  1  0  0  0
 11 12  2  0  0  0
 12 13  1  0  0  0
 13 14  2  0  0  0
 14  8  1  0  0  0
  8  1  1  0  0  0
  1  2  2  0  0  0
  2  3  1  0  0  0
  3  4  2  0  0  0
  4  5  1  0  0  0
  4  6  1  0  0  0
  6 18  1  0  0  0
 18 20  1  0  0  0
 20 21  2  0  0  0
 21 22  1  0  0  0
 22 23  2  0  0  0
 23 24  1  0  0  0
 24 25  1  0  0  0
 25 26  1  0  0  0
 25 27  1  0  0  0
 25 28  1  0  0  0
 28 29  1  0  0  0
 29 30  2  0  0  0
  6  7  2  0  0  0
 14 15  1  0  0  0
 15 16  2  0  0  0
 16 11  1  0  0  0
  7  1  1  0  0  0
 30 20  1  0  0  0
 29 23  1  0  0  0
 10 17  1  0  0  0
  8  9  1  0  0  0
 18 19  1  0  0  0
M  END
> <minimizedAffinity>
-8.98272

> <CNNscore>
0.4629206955

> <CNNaffinity>
6.7887511253

> <CNN_VS>
3.1426534653

> <CNNaffinity_variance>
0.0657807142

$$$$
[H]Oc1c([H])c([H])c(N([H])c2nc([H])c(F)c(N([H])c3c([H])c([H])c4c(c3[H])OC(F)(F)O4)n2)c([H])c1[H]


 30 33  0  0  0  0  0  0  0  0999 V2000
  -84.9888   32.9610   -0.6187 C   0  0  0  0  0  0  0  0  0  0  0  0
  -83.6762   33.1153   -0.7096 N   0  0  0  0  0  0  0  0  0  0  0  0
  -82.7863   32.3460   -0.0953 C   0  0  0  0  0  0  0  0  0  0  0  0
  -83.2292   31.3270    0.6833 C   0  0  0  0  0  0  0  0  0  0  0  0
  -82.3693   30.5288    1.3197 F   0  0  0  0  0  0  0  0  0  0  0  0
  -84.6115   31.1150    0.8173 C   0  0  0  0  0  0  0  0  0  0  0  0
  -85.4155   31.9436    0.1589 N   0  0  0  0  0  0  0  0  0  0  0  0
  -85.9512   33.7525   -1.2520 N   0  0  0  0  0  0  0  0  0  0  0  0
  -86.1165   34.7259   -0.8348 H   0  0  0  0  0  0  0  0  0  0  0  0
  -89.2458   32.2923   -5.6072 O   0  0  0  0  0  0  0  0  0  0  0  0
  -88.4242   32.6788   -4.5479 C   0  0  0  0  0  0  0  0  0  0  0  0
  -87.8623   33.9281   -4.4768 C   0  0  0  0  0  0  0  0  0  0  0  0
  -87.0348   34.3025   -3.4000 C   0  0  0  0  0  0  0  0  0  0  0  0
  -86.7511   33.4448   -2.3753 C   0  0  0  0  0  0  0  0  0  0  0  0
  -87.3403   32.1730   -2.4756 C   0  0  0  0  0  0  0  0  0  0  0  0
  -88.1475   31.8032   -3.5237 C   0  0  0  0  0  0  0  0  0  0  0  0
  -88.8268   31.8567   -6.4358 H   0  0  0  0  0  0  0  0  0  0  0  0
  -85.0190   30.0277    1.6200 N   0  0  0  0  0  0  0  0  0  0  0  0
  -84.5879   29.9215    2.5987 H   0  0  0  0  0  0  0  0  0  0  0  0
  -85.9688   29.0708    1.2121 C   0  0  0  0  0  0  0  0  0  0  0  0
  -86.2006   28.9922   -0.1743 C   0  0  0  0  0  0  0  0  0  0  0  0
  -87.0931   28.0651   -0.6398 C   0  0  0  0  0  0  0  0  0  0  0  0
  -87.7911   27.1886    0.1775 C   0  0  0  0  0  0  0  0  0  0  0  0
  -88.7253   26.1891   -0.0821 O   0  0  0  0  0  0  0  0  0  0  0  0
  -89.3864   25.9188    1.1390 C   0  0  0  0  0  0  0  0  0  0  0  0
  -90.5159   26.7024    1.2904 F   0  0  0  0  0  0  0  0  0  0  0  0
  -89.6519   24.5814    1.2524 F   0  0  0  0  0  0  0  0  0  0  0  0
  -88.3766   26.2959    2.0891 O   0  0  0  0  0  0  0  0  0  0  0  0
  -87.5665   27.2628    1.5304 C   0  0  0  0  0  0  0  0  0  0  0  0
  -86.6558   28.2053    2.0287 C   0  0  0  0  0  0  0  0  0  0  0  0
 10 11  1  0  0  0
 11 12  2  0  0  0
 12 13  1  0  0  0
 13 14  2  0  0  0
 14  8  1  0  0  0
  8  1  1  0  0  0
  1  2  2  0  0  0
  2  3  1  0  0  0
  3  4  2  0  0  0
  4  5  1  0  0  0
  4  6  1  0  0  0
  6 18  1  0  0  0
 18 20  1  0  0  0
 20 21  2  0  0  0
 21 22  1  0  0  0
 22 23  2  0  0  0
 23 24  1  0  0  0
 24 25  1  0  0  0
 25 26  1  0  0  0
 25 27  1  0  0  0
 25 28  1  0  0  0
 28 29  1  0  0  0
 29 30  2  0  0  0
  6  7  2  0  0  0
 14 15  1  0  0  0
 15 16  2  0  0  0
 16 11  1  0  0  0
  7  1  1  0  0  0
 30 20  1  0  0  0
 29 23  1  0  0  0
 10 17  1  0  0  0
  8  9  1  0  0  0
 18 19  1  0  0  0
M  END
> <minimizedAffinity>
-8.85689

> <CNNscore>
0.4571396708

> <CNNaffinity>
6.8571906090

> <CNN_VS>
3.1346938610

> <CNNaffinity_variance>
0.1552528441

$$$$
[H]Oc1c([H])c([H])c(N([H])c2nc([H])c(F)c(N([H])c3c([H])c([H])c4c(c3[H])OC(F)(F)O4)n2)c([H])c1[H]


 30 33  0  0  0  0  0  0  0  0999 V2000
  -86.1507   32.3918   -0.7527 C   0  0  0  0  0  0  0  0  0  0  0  0
  -85.1538   32.5640    0.1027 N   0  0  0  0  0  0  0  0  0  0  0  0
  -84.6919   31.6220    0.9155 C   0  0  0  0  0  0  0  0  0  0  0  0
  -85.2650   30.3927    0.8845 C   0  0  0  0  0  0  0  0  0  0  0  0
  -84.8323   29.4161    1.6848 F   0  0  0  0  0  0  0  0  0  0  0  0
  -86.3269   30.1514   -0.0031 C   0  0  0  0  0  0  0  0  0  0  0  0
  -86.7115   31.1642   -0.7731 N   0  0  0  0  0  0  0  0  0  0  0  0
  -86.6601   33.3614   -1.6211 N   0  0  0  0  0  0  0  0  0  0  0  0
  -86.3266   34.3672   -1.4598 H   0  0  0  0  0  0  0  0  0  0  0  0
  -90.4403   32.9445   -5.8032 O   0  0  0  0  0  0  0  0  0  0  0  0
  -89.4908   33.0238   -4.7841 C   0  0  0  0  0  0  0  0  0  0  0  0
  -88.2921   32.3602   -4.8486 C   0  0  0  0  0  0  0  0  0  0  0  0
  -87.3440   32.4511   -3.8107 C   0  0  0  0  0  0  0  0  0  0  0  0
  -87.5682   33.2020   -2.6917 C   0  0  0  0  0  0  0  0  0  0  0  0
  -88.8041   33.8697   -2.6538 C   0  0  0  0  0  0  0  0  0  0  0  0
  -89.7318   33.7839   -3.6631 C   0  0  0  0  0  0  0  0  0  0  0  0
  -91.1531   32.2077   -5.7703 H   0  0  0  0  0  0  0  0  0  0  0  0
  -86.8724   28.8495   -0.0121 N   0  0  0  0  0  0  0  0  0  0  0  0
  -86.4438   28.1173   -0.6717 H   0  0  0  0  0  0  0  0  0  0  0  0
  -87.9492   28.4501    0.8035 C   0  0  0  0  0  0  0  0  0  0  0  0
  -89.2181   28.9185    0.4130 C   0  0  0  0  0  0  0  0  0  0  0  0
  -90.3108   28.5458    1.1478 C   0  0  0  0  0  0  0  0  0  0  0  0
  -90.2458   27.7267    2.2651 C   0  0  0  0  0  0  0  0  0  0  0  0
  -91.2123   27.2352    3.1388 O   0  0  0  0  0  0  0  0  0  0  0  0
  -90.5324   26.8055    4.3025 C   0  0  0  0  0  0  0  0  0  0  0  0
  -90.4398   27.8175    5.2406 F   0  0  0  0  0  0  0  0  0  0  0  0
  -91.1123   25.6719    4.8033 F   0  0  0  0  0  0  0  0  0  0  0  0
  -89.2370   26.4919    3.7655 O   0  0  0  0  0  0  0  0  0  0  0  0
  -89.0092   27.2681    2.6479 C   0  0  0  0  0  0  0  0  0  0  0  0
  -87.8762   27.6374    1.9090 C   0  0  0  0  0  0  0  0  0  0  0  0
 10 11  1  0  0  0
 11 12  2  0  0  0
 12 13  1  0  0  0
 13 14  2  0  0  0
 14  8  1  0  0  0
  8  1  1  0  0  0
  1  2  2  0  0  0
  2  3  1  0  0  0
  3  4  2  0  0  0
  4  5  1  0  0  0
  4  6  1  0  0  0
  6 18  1  0  0  0
 18 20  1  0  0  0
 20 21  2  0  0  0
 21 22  1  0  0  0
 22 23  2  0  0  0
 23 24  1  0  0  0
 24 25  1  0  0  0
 25 26  1  0  0  0
 25 27  1  0  0  0
 25 28  1  0  0  0
 28 29  1  0  0  0
 29 30  2  0  0  0
  6  7  2  0  0  0
 14 15  1  0  0  0
 15 16  2  0  0  0
 16 11  1  0  0  0
  7  1  1  0  0  0
 30 20  1  0  0  0
 29 23  1  0  0  0
 10 17  1  0  0  0
  8  9  1  0  0  0
 18 19  1  0  0  0
M  END
> <minimizedAffinity>
-8.24583

> <CNNscore>
0.2949187756

> <CNNaffinity>
6.4086012840

> <CNN_VS>
1.8900167942

> <CNNaffinity_variance>
0.1382095516

$$$$
[H]Oc1c([H])c([H])c(N([H])c2nc([H])c(F)c(N([H])c3c([H])c([H])c4c(c3[H])OC(F)(F)O4)n2)c([H])c1[H]


 30 33  0  0  0  0  0  0  0  0999 V2000
  -85.4181   32.3073    0.0576 C   0  0  0  0  0  0  0  0  0  0  0  0
  -85.4475   33.4376   -0.6327 N   0  0  0  0  0  0  0  0  0  0  0  0
  -86.2543   33.6675   -1.6610 C   0  0  0  0  0  0  0  0  0  0  0  0
  -87.1148   32.6926   -2.0481 C   0  0  0  0  0  0  0  0  0  0  0  0
  -87.9436   32.8810   -3.0772 F   0  0  0  0  0  0  0  0  0  0  0  0
  -87.1283   31.4719   -1.3528 C   0  0  0  0  0  0  0  0  0  0  0  0
  -86.2793   31.3462   -0.3381 N   0  0  0  0  0  0  0  0  0  0  0  0
  -84.5821   32.0338    1.1439 N   0  0  0  0  0  0  0  0  0  0  0  0
  -84.1944   32.8824    1.6716 H   0  0  0  0  0  0  0  0  0  0  0  0
  -83.1911   26.9588    3.2088 O   0  0  0  0  0  0  0  0  0  0  0  0
  -83.5039   28.2166    2.6925 C   0  0  0  0  0  0  0  0  0  0  0  0
  -82.5942   28.9655    1.9904 C   0  0  0  0  0  0  0  0  0  0  0  0
  -82.9264   30.2340    1.4756 C   0  0  0  0  0  0  0  0  0  0  0  0
  -84.1663   30.7810    1.6478 C   0  0  0  0  0  0  0  0  0  0  0  0
  -85.0763   29.9913    2.3709 C   0  0  0  0  0  0  0  0  0  0  0  0
  -84.7570   28.7541    2.8749 C   0  0  0  0  0  0  0  0  0  0  0  0
  -82.8042   26.8858    4.1558 H   0  0  0  0  0  0  0  0  0  0  0  0
  -88.0582   30.5001   -1.7811 N   0  0  0  0  0  0  0  0  0  0  0  0
  -88.6665   30.7144   -2.6407 H   0  0  0  0  0  0  0  0  0  0  0  0
  -88.2317   29.2545   -1.1464 C   0  0  0  0  0  0  0  0  0  0  0  0
  -87.6216   28.1554   -1.7803 C   0  0  0  0  0  0  0  0  0  0  0  0
  -87.7301   26.9199   -1.2017 C   0  0  0  0  0  0  0  0  0  0  0  0
  -88.4106   26.6803   -0.0173 C   0  0  0  0  0  0  0  0  0  0  0  0
  -88.6390   25.5271    0.7292 O   0  0  0  0  0  0  0  0  0  0  0  0
  -89.7202   25.8080    1.5971 C   0  0  0  0  0  0  0  0  0  0  0  0
  -90.9334   25.4747    1.0227 F   0  0  0  0  0  0  0  0  0  0  0  0
  -89.5270   25.2068    2.8108 F   0  0  0  0  0  0  0  0  0  0  0  0
  -89.5995   27.2331    1.7361 O   0  0  0  0  0  0  0  0  0  0  0  0
  -89.0062   27.7509    0.6034 C   0  0  0  0  0  0  0  0  0  0  0  0
  -88.9072   29.0257    0.0280 C   0  0  0  0  0  0  0  0  0  0  0  0
 10 11  1  0  0  0
 11 12  2  0  0  0
 12 13  1  0  0  0
 13 14  2  0  0  0
 14  8  1  0  0  0
  8  1  1  0  0  0
  1  2  2  0  0  0
  2  3  1  0  0  0
  3  4  2  0  0  0
  4  5  1  0  0  0
  4  6  1  0  0  0
  6 18  1  0  0  0
 18 20  1  0  0  0
 20 21  2  0  0  0
 21 22  1  0  0  0
 22 23  2  0  0  0
 23 24  1  0  0  0
 24 25  1  0  0  0
 25 26  1  0  0  0
 25 27  1  0  0  0
 25 28  1  0  0  0
 28 29  1  0  0  0
 29 30  2  0  0  0
  6  7  2  0  0  0
 14 15  1  0  0  0
 15 16  2  0  0  0
 16 11  1  0  0  0
  7  1  1  0  0  0
 30 20  1  0  0  0
 29 23  1  0  0  0
 10 17  1  0  0  0
  8  9  1  0  0  0
 18 19  1  0  0  0
M  END
> <minimizedAffinity>
-9.85599

> <CNNscore>
0.2906699181

> <CNNaffinity>
6.9236650467

> <CNN_VS>
2.0125012398

> <CNNaffinity_variance>
0.1546441019

$$$$
[H]Oc1c([H])c([H])c(N([H])c2nc([H])c(F)c(N([H])c3c([H])c([H])c4c(c3[H])OC(F)(F)O4)n2)c([H])c1[H]


 30 33  0  0  0  0  0  0  0  0999 V2000
  -85.7821   32.9332   -0.7076 C   0  0  0  0  0  0  0  0  0  0  0  0
  -84.5865   33.4235   -0.9994 N   0  0  0  0  0  0  0  0  0  0  0  0
  -83.4410   32.9191   -0.5581 C   0  0  0  0  0  0  0  0  0  0  0  0
  -83.4740   31.8281    0.2476 C   0  0  0  0  0  0  0  0  0  0  0  0
  -82.3460   31.2884    0.7145 F   0  0  0  0  0  0  0  0  0  0  0  0
  -84.7141   31.2645    0.5912 C   0  0  0  0  0  0  0  0  0  0  0  0
  -85.8002   31.8479    0.0948 N   0  0  0  0  0  0  0  0  0  0  0  0
  -87.0055   33.4398   -1.1553 N   0  0  0  0  0  0  0  0  0  0  0  0
  -87.7877   33.5090   -0.4259 H   0  0  0  0  0  0  0  0  0  0  0  0
  -88.3230   35.4305   -6.2794 O   0  0  0  0  0  0  0  0  0  0  0  0
  -88.0090   34.9109   -5.0232 C   0  0  0  0  0  0  0  0  0  0  0  0
  -88.0542   33.5662   -4.7563 C   0  0  0  0  0  0  0  0  0  0  0  0
  -87.7339   33.0578   -3.4822 C   0  0  0  0  0  0  0  0  0  0  0  0
  -87.3629   33.8740   -2.4515 C   0  0  0  0  0  0  0  0  0  0  0  0
  -87.3261   35.2457   -2.7546 C   0  0  0  0  0  0  0  0  0  0  0  0
  -87.6377   35.7461   -3.9952 C   0  0  0  0  0  0  0  0  0  0  0  0
  -89.2920   35.6954   -6.4863 H   0  0  0  0  0  0  0  0  0  0  0  0
  -84.6917   30.1170    1.4130 N   0  0  0  0  0  0  0  0  0  0  0  0
  -83.9672   30.0663    2.2051 H   0  0  0  0  0  0  0  0  0  0  0  0
  -85.5739   29.0298    1.2577 C   0  0  0  0  0  0  0  0  0  0  0  0
  -85.2110   27.8475    1.9304 C   0  0  0  0  0  0  0  0  0  0  0  0
  -86.0383   26.7610    1.8421 C   0  0  0  0  0  0  0  0  0  0  0  0
  -87.2247   26.7515    1.1237 C   0  0  0  0  0  0  0  0  0  0  0  0
  -88.1944   25.7762    0.9061 O   0  0  0  0  0  0  0  0  0  0  0  0
  -88.9470   26.1900   -0.2179 C   0  0  0  0  0  0  0  0  0  0  0  0
  -88.4201   25.6903   -1.3950 F   0  0  0  0  0  0  0  0  0  0  0  0
  -90.2672   25.8711   -0.0524 F   0  0  0  0  0  0  0  0  0  0  0  0
  -88.7797   27.6156   -0.1526 O   0  0  0  0  0  0  0  0  0  0  0  0
  -87.5812   27.9038    0.4670 C   0  0  0  0  0  0  0  0  0  0  0  0
  -86.7482   29.0290    0.5444 C   0  0  0  0  0  0  0  0  0  0  0  0
 10 11  1  0  0  0
 11 12  2  0  0  0
 12 13  1  0  0  0
 13 14  2  0  0  0
 14  8  1  0  0  0
  8  1  1  0  0  0
  1  2  2  0  0  0
  2  3  1  0  0  0
  3  4  2  0  0  0
  4  5  1  0  0  0
  4  6  1  0  0  0
  6 18  1  0  0  0
 18 20  1  0  0  0
 20 21  2  0  0  0
 21 22  1  0  0  0
 22 23  2  0  0  0
 23 24  1  0  0  0
 24 25  1  0  0  0
 25 26  1  0  0  0
 25 27  1  0  0  0
 25 28  1  0  0  0
 28 29  1  0  0  0
 29 30  2  0  0  0
  6  7  2  0  0  0
 14 15  1  0  0  0
 15 16  2  0  0  0
 16 11  1  0  0  0
  7  1  1  0  0  0
 30 20  1  0  0  0
 29 23  1  0  0  0
 10 17  1  0  0  0
  8  9  1  0  0  0
 18 19  1  0  0  0
M  END
> <minimizedAffinity>
-8.23746

> <CNNscore>
0.2532729805

> <CNNaffinity>
6.4778618813

> <CNN_VS>
1.6406674385

> <CNNaffinity_variance>
0.0931378156

$$$$
[H]Oc1c([H])c([H])c(N([H])c2nc([H])c(F)c(N([H])c3c([H])c([H])c4c(c3[H])OC(F)(F)O4)n2)c([H])c1[H]


 30 33  0  0  0  0  0  0  0  0999 V2000
  -85.2063   32.3939    0.0983 C   0  0  0  0  0  0  0  0  0  0  0  0
  -85.0246   33.3743   -0.7739 N   0  0  0  0  0  0  0  0  0  0  0  0
  -85.9062   33.7260   -1.7015 C   0  0  0  0  0  0  0  0  0  0  0  0
  -87.0792   33.0487   -1.7792 C   0  0  0  0  0  0  0  0  0  0  0  0
  -87.9941   33.3687   -2.6968 F   0  0  0  0  0  0  0  0  0  0  0  0
  -87.3275   31.9985   -0.8797 C   0  0  0  0  0  0  0  0  0  0  0  0
  -86.3775   31.7287    0.0097 N   0  0  0  0  0  0  0  0  0  0  0  0
  -84.2994   31.9992    1.0859 N   0  0  0  0  0  0  0  0  0  0  0  0
  -83.6668   32.7667    1.4854 H   0  0  0  0  0  0  0  0  0  0  0  0
  -83.1916   26.8957    3.2495 O   0  0  0  0  0  0  0  0  0  0  0  0
  -83.4957   28.1507    2.7213 C   0  0  0  0  0  0  0  0  0  0  0  0
  -84.7358   28.7206    2.8588 C   0  0  0  0  0  0  0  0  0  0  0  0
  -85.0265   29.9891    2.3194 C   0  0  0  0  0  0  0  0  0  0  0  0
  -84.0924   30.7141    1.6353 C   0  0  0  0  0  0  0  0  0  0  0  0
  -82.8322   30.1048    1.5104 C   0  0  0  0  0  0  0  0  0  0  0  0
  -82.5441   28.8682    2.0344 C   0  0  0  0  0  0  0  0  0  0  0  0
  -83.3433   26.0587    2.6765 H   0  0  0  0  0  0  0  0  0  0  0  0
  -88.5722   31.3417   -0.9882 N   0  0  0  0  0  0  0  0  0  0  0  0
  -89.4671   31.9365   -1.0083 H   0  0  0  0  0  0  0  0  0  0  0  0
  -88.7100   29.9427   -1.0784 C   0  0  0  0  0  0  0  0  0  0  0  0
  -88.4086   29.3787   -2.3327 C   0  0  0  0  0  0  0  0  0  0  0  0
  -88.4973   28.0211   -2.4810 C   0  0  0  0  0  0  0  0  0  0  0  0
  -88.8694   27.1568   -1.4622 C   0  0  0  0  0  0  0  0  0  0  0  0
  -89.0207   25.7740   -1.3989 O   0  0  0  0  0  0  0  0  0  0  0  0
  -89.8027   25.4993   -0.2525 C   0  0  0  0  0  0  0  0  0  0  0  0
  -91.1522   25.4649   -0.5535 F   0  0  0  0  0  0  0  0  0  0  0  0
  -89.3682   24.3551    0.3590 F   0  0  0  0  0  0  0  0  0  0  0  0
  -89.4956   26.6366    0.5703 O   0  0  0  0  0  0  0  0  0  0  0  0
  -89.1635   27.7045   -0.2375 C   0  0  0  0  0  0  0  0  0  0  0  0
  -89.0787   29.0932   -0.0634 C   0  0  0  0  0  0  0  0  0  0  0  0
 10 11  1  0  0  0
 11 12  2  0  0  0
 12 13  1  0  0  0
 13 14  2  0  0  0
 14  8  1  0  0  0
  8  1  1  0  0  0
  1  2  2  0  0  0
  2  3  1  0  0  0
  3  4  2  0  0  0
  4  5  1  0  0  0
  4  6  1  0  0  0
  6 18  1  0  0  0
 18 20  1  0  0  0
 20 21  2  0  0  0
 21 22  1  0  0  0
 22 23  2  0  0  0
 23 24  1  0  0  0
 24 25  1  0  0  0
 25 26  1  0  0  0
 25 27  1  0  0  0
 25 28  1  0  0  0
 28 29  1  0  0  0
 29 30  2  0  0  0
  6  7  2  0  0  0
 14 15  1  0  0  0
 15 16  2  0  0  0
 16 11  1  0  0  0
  7  1  1  0  0  0
 30 20  1  0  0  0
 29 23  1  0  0  0
 10 17  1  0  0  0
  8  9  1  0  0  0
 18 19  1  0  0  0
M  END
> <minimizedAffinity>
-9.67040

> <CNNscore>
0.2264170498

> <CNNaffinity>
6.7884888649

> <CNN_VS>
1.5370296240

> <CNNaffinity_variance>
0.1291356236

$$$$
[H]c1nc(N([H])c2c([H])c([H])c(N3C([H])([H])C([H])([H])C([H])(N4C([H])([H])C([H])([H])OC([H])([H])C4([H])[H])C([H])([H])C3([H])[H])c([H])c2OC([H])([H])[H])nc(N([H])c2c([H])c([H])c([H])c([H])c2S(=O)(=O)C([H])(C([H])([H])[H])C([H])([H])[H])c1Cl


 43 47  0  0  0  0  0  0  0  0999 V2000
  -86.1391   32.3229    0.2817 N   0  0  0  0  0  0  0  0  0  0  0  0
  -85.8556   33.1036    0.9913 H   0  0  0  0  0  0  0  0  0  0  0  0
  -85.8091   31.0239    0.7121 C   0  0  0  0  0  0  0  0  0  0  0  0
  -84.7087   30.9038    1.5380 N   0  0  0  0  0  0  0  0  0  0  0  0
  -84.2871   29.7655    2.0483 C   0  0  0  0  0  0  0  0  0  0  0  0
  -84.9670   28.6038    1.7582 C   0  0  0  0  0  0  0  0  0  0  0  0
  -84.4776   27.0603    2.3961 Cl  0  0  0  0  0  0  0  0  0  0  0  0
  -86.0980   28.6550    0.9238 C   0  0  0  0  0  0  0  0  0  0  0  0
  -86.4355   29.8823    0.4581 N   0  0  0  0  0  0  0  0  0  0  0  0
  -86.7434   27.4506    0.6336 N   0  0  0  0  0  0  0  0  0  0  0  0
  -86.2012   26.5725    0.9078 H   0  0  0  0  0  0  0  0  0  0  0  0
  -87.9996   27.1778    0.0570 C   0  0  0  0  0  0  0  0  0  0  0  0
  -88.2501   27.3026   -1.2846 C   0  0  0  0  0  0  0  0  0  0  0  0
  -89.5154   27.0857   -1.7873 C   0  0  0  0  0  0  0  0  0  0  0  0
  -90.5660   26.7399   -0.9753 C   0  0  0  0  0  0  0  0  0  0  0  0
  -90.3316   26.6083    0.3865 C   0  0  0  0  0  0  0  0  0  0  0  0
  -89.0723   26.8227    0.8982 C   0  0  0  0  0  0  0  0  0  0  0  0
  -88.8722   26.6137    2.6098 S   0  0  0  0  0  0  0  0  0  0  0  0
  -87.6157   25.8943    2.9944 O   0  0  0  0  0  0  0  0  0  0  0  0
  -88.7259   28.0055    3.2376 O   0  0  0  0  0  0  0  0  0  0  0  0
  -90.2636   25.8337    3.3465 C   0  0  0  0  0  0  0  0  0  0  0  0
  -89.8542   24.4211    3.8371 C   0  0  0  0  0  0  0  0  0  0  0  0
  -90.8621   26.6185    4.4821 C   0  0  0  0  0  0  0  0  0  0  0  0
  -85.9229   33.1753   -1.9411 C   0  0  0  0  0  0  0  0  0  0  0  0
  -86.5140   33.5832   -3.1131 C   0  0  0  0  0  0  0  0  0  0  0  0
  -87.8937   33.6163   -3.2906 C   0  0  0  0  0  0  0  0  0  0  0  0
  -88.6805   33.2230   -2.2426 C   0  0  0  0  0  0  0  0  0  0  0  0
  -88.1160   32.7989   -1.0292 C   0  0  0  0  0  0  0  0  0  0  0  0
  -86.7506   32.7778   -0.8864 C   0  0  0  0  0  0  0  0  0  0  0  0
  -88.4979   34.0533   -4.4998 N   0  0  0  0  0  0  0  0  0  0  0  0
  -89.5015   33.2246   -5.1725 C   0  0  0  0  0  0  0  0  0  0  0  0
  -90.2917   34.0908   -6.1519 C   0  0  0  0  0  0  0  0  0  0  0  0
  -90.6803   35.3726   -5.4747 C   0  0  0  0  0  0  0  0  0  0  0  0
  -89.4162   36.1932   -5.3306 C   0  0  0  0  0  0  0  0  0  0  0  0
  -88.2002   35.3046   -5.1405 C   0  0  0  0  0  0  0  0  0  0  0  0
  -91.6137   36.1264   -6.2662 N   0  0  0  0  0  0  0  0  0  0  0  0
  -91.0594   37.4521   -6.5690 C   0  0  0  0  0  0  0  0  0  0  0  0
  -92.0756   38.1369   -7.4663 C   0  0  0  0  0  0  0  0  0  0  0  0
  -93.2880   38.3251   -6.8125 O   0  0  0  0  0  0  0  0  0  0  0  0
  -93.7945   37.0581   -6.5472 C   0  0  0  0  0  0  0  0  0  0  0  0
  -92.8572   36.3899   -5.5637 C   0  0  0  0  0  0  0  0  0  0  0  0
  -83.9772   33.8318   -0.6712 C   0  0  0  0  0  0  0  0  0  0  0  0
  -84.5490   33.1449   -1.7705 O   0  0  0  0  0  0  0  0  0  0  0  0
 42 43  1  0  0  0
 43 24  1  0  0  0
 24 25  2  0  0  0
 25 26  1  0  0  0
 26 27  2  0  0  0
 27 28  1  0  0  0
 28 29  2  0  0  0
 29  1  1  0  0  0
  1  3  1  0  0  0
  3  4  2  0  0  0
  4  5  1  0  0  0
  5  6  2  0  0  0
  6  7  1  0  0  0
  6  8  1  0  0  0
  8 10  1  0  0  0
 10 12  1  0  0  0
 12 13  2  0  0  0
 13 14  1  0  0  0
 14 15  2  0  0  0
 15 16  1  0  0  0
 16 17  2  0  0  0
 17 18  1  0  0  0
 18 19  2  0  0  0
 18 20  2  0  0  0
 18 21  1  0  0  0
 21 22  1  0  0  0
 21 23  1  0  0  0
  8  9  2  0  0  0
 26 30  1  0  0  0
 30 31  1  0  0  0
 31 32  1  0  0  0
 32 33  1  0  0  0
 33 34  1  0  0  0
 34 35  1  0  0  0
 33 36  1  0  0  0
 36 37  1  0  0  0
 37 38  1  0  0  0
 38 39  1  0  0  0
 39 40  1  0  0  0
 40 41  1  0  0  0
 29 24  1  0  0  0
  9  3  1  0  0  0
 35 30  1  0  0  0
 41 36  1  0  0  0
 17 12  1  0  0  0
  1  2  1  0  0  0
 10 11  1  0  0  0
M  END
> <minimizedAffinity>
-7.37112

> <CNNscore>
0.1372711360

> <CNNaffinity>
7.1535873413

> <CNN_VS>
0.9819810390

> <CNNaffinity_variance>
0.1434595883

$$$$
[H]c1nc(N([H])c2c([H])c([H])c(N3C([H])([H])C([H])([H])C([H])(N4C([H])([H])C([H])([H])OC([H])([H])C4([H])[H])C([H])([H])C3([H])[H])c([H])c2OC([H])([H])[H])nc(N([H])c2c([H])c([H])c([H])c([H])c2S(=O)(=O)C([H])(C([H])([H])[H])C([H])([H])[H])c1Cl


 43 47  0  0  0  0  0  0  0  0999 V2000
  -86.3423   27.9751    0.9248 N   0  0  0  0  0  0  0  0  0  0  0  0
  -85.6552   27.4718    1.6089 H   0  0  0  0  0  0  0  0  0  0  0  0
  -85.9508   29.2870    0.5974 C   0  0  0  0  0  0  0  0  0  0  0  0
  -84.6106   29.5892    0.7394 N   0  0  0  0  0  0  0  0  0  0  0  0
  -84.0809   30.7590    0.4486 C   0  0  0  0  0  0  0  0  0  0  0  0
  -84.8899   31.7650   -0.0304 C   0  0  0  0  0  0  0  0  0  0  0  0
  -84.2673   33.3371   -0.4426 Cl  0  0  0  0  0  0  0  0  0  0  0  0
  -86.2650   31.5241   -0.2004 C   0  0  0  0  0  0  0  0  0  0  0  0
  -86.6946   30.2826    0.1331 N   0  0  0  0  0  0  0  0  0  0  0  0
  -87.0546   32.5791   -0.6640 N   0  0  0  0  0  0  0  0  0  0  0  0
  -87.4565   33.2090    0.0990 H   0  0  0  0  0  0  0  0  0  0  0  0
  -87.4068   32.9813   -1.9675 C   0  0  0  0  0  0  0  0  0  0  0  0
  -86.6858   33.8969   -2.6885 C   0  0  0  0  0  0  0  0  0  0  0  0
  -87.1116   34.3037   -3.9351 C   0  0  0  0  0  0  0  0  0  0  0  0
  -88.2623   33.8151   -4.5006 C   0  0  0  0  0  0  0  0  0  0  0  0
  -89.0058   32.8864   -3.7855 C   0  0  0  0  0  0  0  0  0  0  0  0
  -88.5896   32.4740   -2.5404 C   0  0  0  0  0  0  0  0  0  0  0  0
  -89.5737   31.2943   -1.7323 S   0  0  0  0  0  0  0  0  0  0  0  0
  -89.7070   31.5175   -0.2569 O   0  0  0  0  0  0  0  0  0  0  0  0
  -91.0032   31.4279   -2.2721 O   0  0  0  0  0  0  0  0  0  0  0  0
  -89.0298   29.6536   -2.0474 C   0  0  0  0  0  0  0  0  0  0  0  0
  -90.2493   28.7796   -2.4383 C   0  0  0  0  0  0  0  0  0  0  0  0
  -87.9714   29.5647   -3.1131 C   0  0  0  0  0  0  0  0  0  0  0  0
  -88.5721   27.2373    1.3699 C   0  0  0  0  0  0  0  0  0  0  0  0
  -89.6850   26.5339    0.9752 C   0  0  0  0  0  0  0  0  0  0  0  0
  -89.7389   25.8112   -0.2126 C   0  0  0  0  0  0  0  0  0  0  0  0
  -88.6266   25.8113   -1.0094 C   0  0  0  0  0  0  0  0  0  0  0  0
  -87.4700   26.5174   -0.6427 C   0  0  0  0  0  0  0  0  0  0  0  0
  -87.4494   27.2211    0.5362 C   0  0  0  0  0  0  0  0  0  0  0  0
  -90.8877   25.0743   -0.6069 N   0  0  0  0  0  0  0  0  0  0  0  0
  -92.1867   25.3283    0.0210 C   0  0  0  0  0  0  0  0  0  0  0  0
  -93.2921   24.7571   -0.8656 C   0  0  0  0  0  0  0  0  0  0  0  0
  -93.0355   25.1521   -2.2907 C   0  0  0  0  0  0  0  0  0  0  0  0
  -91.8482   24.3406   -2.7638 C   0  0  0  0  0  0  0  0  0  0  0  0
  -90.8820   24.0618   -1.6265 C   0  0  0  0  0  0  0  0  0  0  0  0
  -94.1552   24.8389   -3.1355 N   0  0  0  0  0  0  0  0  0  0  0  0
  -93.7197   23.9899   -4.2519 C   0  0  0  0  0  0  0  0  0  0  0  0
  -94.9754   23.6512   -5.0362 C   0  0  0  0  0  0  0  0  0  0  0  0
  -95.5624   24.7903   -5.5755 O   0  0  0  0  0  0  0  0  0  0  0  0
  -95.9736   25.5695   -4.5004 C   0  0  0  0  0  0  0  0  0  0  0  0
  -94.7305   26.0167   -3.7607 C   0  0  0  0  0  0  0  0  0  0  0  0
  -89.2240   27.4638    3.6835 C   0  0  0  0  0  0  0  0  0  0  0  0
  -88.5245   27.9545    2.5535 O   0  0  0  0  0  0  0  0  0  0  0  0
 42 43  1  0  0  0
 43 24  1  0  0  0
 24 25  2  0  0  0
 25 26  1  0  0  0
 26 27  2  0  0  0
 27 28  1  0  0  0
 28 29  2  0  0  0
 29  1  1  0  0  0
  1  3  1  0  0  0
  3  4  2  0  0  0
  4  5  1  0  0  0
  5  6  2  0  0  0
  6  7  1  0  0  0
  6  8  1  0  0  0
  8 10  1  0  0  0
 10 12  1  0  0  0
 12 13  2  0  0  0
 13 14  1  0  0  0
 14 15  2  0  0  0
 15 16  1  0  0  0
 16 17  2  0  0  0
 17 18  1  0  0  0
 18 19  2  0  0  0
 18 20  2  0  0  0
 18 21  1  0  0  0
 21 22  1  0  0  0
 21 23  1  0  0  0
  8  9  2  0  0  0
 26 30  1  0  0  0
 30 31  1  0  0  0
 31 32  1  0  0  0
 32 33  1  0  0  0
 33 34  1  0  0  0
 34 35  1  0  0  0
 33 36  1  0  0  0
 36 37  1  0  0  0
 37 38  1  0  0  0
 38 39  1  0  0  0
 39 40  1  0  0  0
 40 41  1  0  0  0
 29 24  1  0  0  0
  9  3  1  0  0  0
 35 30  1  0  0  0
 41 36  1  0  0  0
 17 12  1  0  0  0
  1  2  1  0  0  0
 10 11  1  0  0  0
M  END
> <minimizedAffinity>
-7.79284

> <CNNscore>
0.0892241150

> <CNNaffinity>
7.0352225304

> <CNN_VS>
0.6277114749

> <CNNaffinity_variance>
0.3154985309

$$$$
[H]c1nc(N([H])c2c([H])c([H])c(N3C([H])([H])C([H])([H])C([H])(N4C([H])([H])C([H])([H])OC([H])([H])C4([H])[H])C([H])([H])C3([H])[H])c([H])c2OC([H])([H])[H])nc(N([H])c2c([H])c([H])c([H])c([H])c2S(=O)(=O)C([H])(C([H])([H])[H])C([H])([H])[H])c1Cl


 43 47  0  0  0  0  0  0  0  0999 V2000
  -86.3700   27.9625    0.9437 N   0  0  0  0  0  0  0  0  0  0  0  0
  -85.6896   27.4754    1.6458 H   0  0  0  0  0  0  0  0  0  0  0  0
  -85.9877   29.2751    0.6078 C   0  0  0  0  0  0  0  0  0  0  0  0
  -84.6476   29.5839    0.7358 N   0  0  0  0  0  0  0  0  0  0  0  0
  -84.1261   30.7551    0.4357 C   0  0  0  0  0  0  0  0  0  0  0  0
  -84.9443   31.7556   -0.0391 C   0  0  0  0  0  0  0  0  0  0  0  0
  -84.3331   33.3290   -0.4629 Cl  0  0  0  0  0  0  0  0  0  0  0  0
  -86.3200   31.5078   -0.1949 C   0  0  0  0  0  0  0  0  0  0  0  0
  -86.7406   30.2656    0.1472 N   0  0  0  0  0  0  0  0  0  0  0  0
  -87.1188   32.5575   -0.6546 N   0  0  0  0  0  0  0  0  0  0  0  0
  -87.5466   33.1659    0.1117 H   0  0  0  0  0  0  0  0  0  0  0  0
  -87.4526   32.9778   -1.9572 C   0  0  0  0  0  0  0  0  0  0  0  0
  -86.7149   33.8947   -2.6596 C   0  0  0  0  0  0  0  0  0  0  0  0
  -87.1228   34.3197   -3.9061 C   0  0  0  0  0  0  0  0  0  0  0  0
  -88.2717   33.8486   -4.4899 C   0  0  0  0  0  0  0  0  0  0  0  0
  -89.0319   32.9189   -3.7938 C   0  0  0  0  0  0  0  0  0  0  0  0
  -88.6335   32.4884   -2.5490 C   0  0  0  0  0  0  0  0  0  0  0  0
  -89.6377   31.3090   -1.7656 S   0  0  0  0  0  0  0  0  0  0  0  0
  -89.8108   31.5346   -0.2947 O   0  0  0  0  0  0  0  0  0  0  0  0
  -91.0523   31.4401   -2.3438 O   0  0  0  0  0  0  0  0  0  0  0  0
  -89.0838   29.6684   -2.0631 C   0  0  0  0  0  0  0  0  0  0  0  0
  -90.2885   28.7964   -2.5013 C   0  0  0  0  0  0  0  0  0  0  0  0
  -87.9862   29.5805   -3.0884 C   0  0  0  0  0  0  0  0  0  0  0  0
  -88.5541   27.1119    1.4132 C   0  0  0  0  0  0  0  0  0  0  0  0
  -89.6532   26.3912    1.0111 C   0  0  0  0  0  0  0  0  0  0  0  0
  -89.7214   25.7417   -0.2176 C   0  0  0  0  0  0  0  0  0  0  0  0
  -88.6382   25.8346   -1.0483 C   0  0  0  0  0  0  0  0  0  0  0  0
  -87.4966   26.5615   -0.6753 C   0  0  0  0  0  0  0  0  0  0  0  0
  -87.4612   27.1912    0.5442 C   0  0  0  0  0  0  0  0  0  0  0  0
  -90.8551   24.9861   -0.6203 N   0  0  0  0  0  0  0  0  0  0  0  0
  -90.9445   24.4441   -1.9784 C   0  0  0  0  0  0  0  0  0  0  0  0
  -91.9948   23.3351   -2.0073 C   0  0  0  0  0  0  0  0  0  0  0  0
  -91.7883   22.4289   -0.8287 C   0  0  0  0  0  0  0  0  0  0  0  0
  -92.2264   23.1991    0.3988 C   0  0  0  0  0  0  0  0  0  0  0  0
  -91.9673   24.6863    0.2388 C   0  0  0  0  0  0  0  0  0  0  0  0
  -92.5972   21.2447   -0.9248 N   0  0  0  0  0  0  0  0  0  0  0  0
  -93.7074   21.4696   -1.8595 C   0  0  0  0  0  0  0  0  0  0  0  0
  -94.4517   20.1489   -1.9525 C   0  0  0  0  0  0  0  0  0  0  0  0
  -94.9982   19.7844   -0.7272 O   0  0  0  0  0  0  0  0  0  0  0  0
  -93.9284   19.5683    0.1337 C   0  0  0  0  0  0  0  0  0  0  0  0
  -93.2305   20.8968    0.3350 C   0  0  0  0  0  0  0  0  0  0  0  0
  -89.4651   27.4558    3.6225 C   0  0  0  0  0  0  0  0  0  0  0  0
  -88.4921   27.7559    2.6375 O   0  0  0  0  0  0  0  0  0  0  0  0
 42 43  1  0  0  0
 43 24  1  0  0  0
 24 25  2  0  0  0
 25 26  1  0  0  0
 26 27  2  0  0  0
 27 28  1  0  0  0
 28 29  2  0  0  0
 29  1  1  0  0  0
  1  3  1  0  0  0
  3  4  2  0  0  0
  4  5  1  0  0  0
  5  6  2  0  0  0
  6  7  1  0  0  0
  6  8  1  0  0  0
  8 10  1  0  0  0
 10 12  1  0  0  0
 12 13  2  0  0  0
 13 14  1  0  0  0
 14 15  2  0  0  0
 15 16  1  0  0  0
 16 17  2  0  0  0
 17 18  1  0  0  0
 18 19  2  0  0  0
 18 20  2  0  0  0
 18 21  1  0  0  0
 21 22  1  0  0  0
 21 23  1  0  0  0
  8  9  2  0  0  0
 26 30  1  0  0  0
 30 31  1  0  0  0
 31 32  1  0  0  0
 32 33  1  0  0  0
 33 34  1  0  0  0
 34 35  1  0  0  0
 33 36  1  0  0  0
 36 37  1  0  0  0
 37 38  1  0  0  0
 38 39  1  0  0  0
 39 40  1  0  0  0
 40 41  1  0  0  0
 29 24  1  0  0  0
  9  3  1  0  0  0
 35 30  1  0  0  0
 41 36  1  0  0  0
 17 12  1  0  0  0
  1  2  1  0  0  0
 10 11  1  0  0  0
M  END
> <minimizedAffinity>
-8.15162

> <CNNscore>
0.0823240206

> <CNNaffinity>
6.9253363609

> <CNN_VS>
0.5701215267

> <CNNaffinity_variance>
0.3008480668

$$$$
[H]c1nc(N([H])c2c([H])c([H])c(N3C([H])([H])C([H])([H])C([H])(N4C([H])([H])C([H])([H])OC([H])([H])C4([H])[H])C([H])([H])C3([H])[H])c([H])c2OC([H])([H])[H])nc(N([H])c2c([H])c([H])c([H])c([H])c2S(=O)(=O)C([H])(C([H])([H])[H])C([H])([H])[H])c1Cl


 43 47  0  0  0  0  0  0  0  0999 V2000
  -86.5296   32.1456    0.2957 N   0  0  0  0  0  0  0  0  0  0  0  0
  -86.0104   32.7738    1.0230 H   0  0  0  0  0  0  0  0  0  0  0  0
  -86.4393   30.7687    0.5746 C   0  0  0  0  0  0  0  0  0  0  0  0
  -85.4396   30.3749    1.4423 N   0  0  0  0  0  0  0  0  0  0  0  0
  -85.2405   29.1312    1.8264 C   0  0  0  0  0  0  0  0  0  0  0  0
  -86.0663   28.1380    1.3496 C   0  0  0  0  0  0  0  0  0  0  0  0
  -85.8732   26.4713    1.8120 Cl  0  0  0  0  0  0  0  0  0  0  0  0
  -87.1062   28.4703    0.4628 C   0  0  0  0  0  0  0  0  0  0  0  0
  -87.2122   29.7822    0.1392 N   0  0  0  0  0  0  0  0  0  0  0  0
  -87.9046   27.4296   -0.0176 N   0  0  0  0  0  0  0  0  0  0  0  0
  -87.6331   26.4572    0.3300 H   0  0  0  0  0  0  0  0  0  0  0  0
  -89.0261   27.4281   -0.8704 C   0  0  0  0  0  0  0  0  0  0  0  0
  -89.0118   27.9762   -2.1264 C   0  0  0  0  0  0  0  0  0  0  0  0
  -90.1564   28.0056   -2.8944 C   0  0  0  0  0  0  0  0  0  0  0  0
  -91.3453   27.4937   -2.4392 C   0  0  0  0  0  0  0  0  0  0  0  0
  -91.3793   26.9340   -1.1694 C   0  0  0  0  0  0  0  0  0  0  0  0
  -90.2424   26.8998   -0.3949 C   0  0  0  0  0  0  0  0  0  0  0  0
  -90.3781   26.1610    1.1700 S   0  0  0  0  0  0  0  0  0  0  0  0
  -91.4298   25.0973    1.2540 O   0  0  0  0  0  0  0  0  0  0  0  0
  -89.0631   25.4250    1.4560 O   0  0  0  0  0  0  0  0  0  0  0  0
  -90.6186   27.3489    2.4420 C   0  0  0  0  0  0  0  0  0  0  0  0
  -89.3369   27.4305    3.3107 C   0  0  0  0  0  0  0  0  0  0  0  0
  -90.9788   28.7163    1.9281 C   0  0  0  0  0  0  0  0  0  0  0  0
  -86.3954   33.7751   -1.4482 C   0  0  0  0  0  0  0  0  0  0  0  0
  -86.9866   34.4284   -2.5031 C   0  0  0  0  0  0  0  0  0  0  0  0
  -88.3008   34.1934   -2.8953 C   0  0  0  0  0  0  0  0  0  0  0  0
  -89.0209   33.2692   -2.1886 C   0  0  0  0  0  0  0  0  0  0  0  0
  -88.4538   32.5798   -1.1052 C   0  0  0  0  0  0  0  0  0  0  0  0
  -87.1540   32.8349   -0.7438 C   0  0  0  0  0  0  0  0  0  0  0  0
  -88.9099   34.8834   -3.9775 N   0  0  0  0  0  0  0  0  0  0  0  0
  -88.4471   34.6704   -5.3511 C   0  0  0  0  0  0  0  0  0  0  0  0
  -89.5221   35.1544   -6.3228 C   0  0  0  0  0  0  0  0  0  0  0  0
  -90.8599   34.6437   -5.8732 C   0  0  0  0  0  0  0  0  0  0  0  0
  -91.2324   35.4241   -4.6306 C   0  0  0  0  0  0  0  0  0  0  0  0
  -90.0009   35.8068   -3.8295 C   0  0  0  0  0  0  0  0  0  0  0  0
  -91.8740   34.8741   -6.8655 N   0  0  0  0  0  0  0  0  0  0  0  0
  -93.0406   35.5201   -6.2504 C   0  0  0  0  0  0  0  0  0  0  0  0
  -94.0158   35.7912   -7.3827 C   0  0  0  0  0  0  0  0  0  0  0  0
  -94.4499   34.6108   -7.9751 O   0  0  0  0  0  0  0  0  0  0  0  0
  -93.3310   34.0261   -8.5569 C   0  0  0  0  0  0  0  0  0  0  0  0
  -92.3851   33.6417   -7.4389 C   0  0  0  0  0  0  0  0  0  0  0  0
  -84.1092   33.0145   -1.2924 C   0  0  0  0  0  0  0  0  0  0  0  0
  -85.0870   34.0136   -1.0625 O   0  0  0  0  0  0  0  0  0  0  0  0
 42 43  1  0  0  0
 43 24  1  0  0  0
 24 25  2  0  0  0
 25 26  1  0  0  0
 26 27  2  0  0  0
 27 28  1  0  0  0
 28 29  2  0  0  0
 29  1  1  0  0  0
  1  3  1  0  0  0
  3  4  2  0  0  0
  4  5  1  0  0  0
  5  6  2  0  0  0
  6  7  1  0  0  0
  6  8  1  0  0  0
  8 10  1  0  0  0
 10 12  1  0  0  0
 12 13  2  0  0  0
 13 14  1  0  0  0
 14 15  2  0  0  0
 15 16  1  0  0  0
 16 17  2  0  0  0
 17 18  1  0  0  0
 18 19  2  0  0  0
 18 20  2  0  0  0
 18 21  1  0  0  0
 21 22  1  0  0  0
 21 23  1  0  0  0
  8  9  2  0  0  0
 26 30  1  0  0  0
 30 31  1  0  0  0
 31 32  1  0  0  0
 32 33  1  0  0  0
 33 34  1  0  0  0
 34 35  1  0  0  0
 33 36  1  0  0  0
 36 37  1  0  0  0
 37 38  1  0  0  0
 38 39  1  0  0  0
 39 40  1  0  0  0
 40 41  1  0  0  0
 29 24  1  0  0  0
  9  3  1  0  0  0
 35 30  1  0  0  0
 41 36  1  0  0  0
 17 12  1  0  0  0
  1  2  1  0  0  0
 10 11  1  0  0  0
M  END
> <minimizedAffinity>
-7.34520

> <CNNscore>
0.0608843751

> <CNNaffinity>
6.7685675621

> <CNN_VS>
0.4121000171

> <CNNaffinity_variance>
0.5036100745

$$$$
[H]c1nc(N([H])c2c([H])c([H])c(N3C([H])([H])C([H])([H])C([H])(N4C([H])([H])C([H])([H])OC([H])([H])C4([H])[H])C([H])([H])C3([H])[H])c([H])c2OC([H])([H])[H])nc(N([H])c2c([H])c([H])c([H])c([H])c2S(=O)(=O)C([H])(C([H])([H])[H])C([H])([H])[H])c1Cl


 43 47  0  0  0  0  0  0  0  0999 V2000
  -87.0443   26.2876    1.2343 N   0  0  0  0  0  0  0  0  0  0  0  0
  -86.4081   25.5131    1.6688 H   0  0  0  0  0  0  0  0  0  0  0  0
  -86.4813   27.5766    1.2916 C   0  0  0  0  0  0  0  0  0  0  0  0
  -85.2113   27.6766    1.8250 N   0  0  0  0  0  0  0  0  0  0  0  0
  -84.5362   28.8029    1.9226 C   0  0  0  0  0  0  0  0  0  0  0  0
  -85.1069   29.9721    1.4719 C   0  0  0  0  0  0  0  0  0  0  0  0
  -84.2796   31.5008    1.5603 Cl  0  0  0  0  0  0  0  0  0  0  0  0
  -86.3983   29.9412    0.9157 C   0  0  0  0  0  0  0  0  0  0  0  0
  -86.9942   28.7248    0.8690 N   0  0  0  0  0  0  0  0  0  0  0  0
  -86.9509   31.1531    0.4945 N   0  0  0  0  0  0  0  0  0  0  0  0
  -87.5051   31.6782    1.2410 H   0  0  0  0  0  0  0  0  0  0  0  0
  -86.8954   31.8270   -0.7415 C   0  0  0  0  0  0  0  0  0  0  0  0
  -85.8676   32.6628   -1.0925 C   0  0  0  0  0  0  0  0  0  0  0  0
  -85.8954   33.3484   -2.2884 C   0  0  0  0  0  0  0  0  0  0  0  0
  -86.9412   33.2248   -3.1680 C   0  0  0  0  0  0  0  0  0  0  0  0
  -87.9912   32.3824   -2.8300 C   0  0  0  0  0  0  0  0  0  0  0  0
  -87.9733   31.6937   -1.6387 C   0  0  0  0  0  0  0  0  0  0  0  0
  -89.3204   30.6484   -1.3135 S   0  0  0  0  0  0  0  0  0  0  0  0
  -89.7900   30.6820    0.1087 O   0  0  0  0  0  0  0  0  0  0  0  0
  -90.5168   31.1600   -2.1256 O   0  0  0  0  0  0  0  0  0  0  0  0
  -89.0040   28.9916   -1.8054 C   0  0  0  0  0  0  0  0  0  0  0  0
  -90.2682   28.4149   -2.4931 C   0  0  0  0  0  0  0  0  0  0  0  0
  -87.8145   28.8510   -2.7159 C   0  0  0  0  0  0  0  0  0  0  0  0
  -89.3492   25.7792    1.6131 C   0  0  0  0  0  0  0  0  0  0  0  0
  -90.5681   25.3805    1.1186 C   0  0  0  0  0  0  0  0  0  0  0  0
  -90.7651   25.0353   -0.2149 C   0  0  0  0  0  0  0  0  0  0  0  0
  -89.6878   25.1010   -1.0558 C   0  0  0  0  0  0  0  0  0  0  0  0
  -88.4262   25.5040   -0.5905 C   0  0  0  0  0  0  0  0  0  0  0  0
  -88.2652   25.8382    0.7315 C   0  0  0  0  0  0  0  0  0  0  0  0
  -92.0247   24.6097   -0.7156 N   0  0  0  0  0  0  0  0  0  0  0  0
  -92.6101   25.2476   -1.8975 C   0  0  0  0  0  0  0  0  0  0  0  0
  -93.6935   24.3373   -2.4733 C   0  0  0  0  0  0  0  0  0  0  0  0
  -93.1744   22.9304   -2.5354 C   0  0  0  0  0  0  0  0  0  0  0  0
  -93.1095   22.4234   -1.1104 C   0  0  0  0  0  0  0  0  0  0  0  0
  -92.8018   23.5480   -0.1381 C   0  0  0  0  0  0  0  0  0  0  0  0
  -94.0599   22.0726   -3.2743 N   0  0  0  0  0  0  0  0  0  0  0  0
  -95.0211   21.4387   -2.3628 C   0  0  0  0  0  0  0  0  0  0  0  0
  -95.9543   20.6214   -3.2391 C   0  0  0  0  0  0  0  0  0  0  0  0
  -95.2723   19.6092   -3.9048 O   0  0  0  0  0  0  0  0  0  0  0  0
  -94.3786   20.2352   -4.7660 C   0  0  0  0  0  0  0  0  0  0  0  0
  -93.3649   20.9699   -3.9146 C   0  0  0  0  0  0  0  0  0  0  0  0
  -89.3854   25.1442    3.9421 C   0  0  0  0  0  0  0  0  0  0  0  0
  -89.1594   26.1212    2.9414 O   0  0  0  0  0  0  0  0  0  0  0  0
 42 43  1  0  0  0
 43 24  1  0  0  0
 24 25  2  0  0  0
 25 26  1  0  0  0
 26 27  2  0  0  0
 27 28  1  0  0  0
 28 29  2  0  0  0
 29  1  1  0  0  0
  1  3  1  0  0  0
  3  4  2  0  0  0
  4  5  1  0  0  0
  5  6  2  0  0  0
  6  7  1  0  0  0
  6  8  1  0  0  0
  8 10  1  0  0  0
 10 12  1  0  0  0
 12 13  2  0  0  0
 13 14  1  0  0  0
 14 15  2  0  0  0
 15 16  1  0  0  0
 16 17  2  0  0  0
 17 18  1  0  0  0
 18 19  2  0  0  0
 18 20  2  0  0  0
 18 21  1  0  0  0
 21 22  1  0  0  0
 21 23  1  0  0  0
  8  9  2  0  0  0
 26 30  1  0  0  0
 30 31  1  0  0  0
 31 32  1  0  0  0
 32 33  1  0  0  0
 33 34  1  0  0  0
 34 35  1  0  0  0
 33 36  1  0  0  0
 36 37  1  0  0  0
 37 38  1  0  0  0
 38 39  1  0  0  0
 39 40  1  0  0  0
 40 41  1  0  0  0
 29 24  1  0  0  0
  9  3  1  0  0  0
 35 30  1  0  0  0
 41 36  1  0  0  0
 17 12  1  0  0  0
  1  2  1  0  0  0
 10 11  1  0  0  0
M  END
> <minimizedAffinity>
-7.20222

> <CNNscore>
0.0578053519

> <CNNaffinity>
6.7976150513

> <CNN_VS>
0.3929385245

> <CNNaffinity_variance>
0.2875846326

$$$$
[H]c1nc(N([H])c2c([H])c([H])c(N3C([H])([H])C([H])([H])C([H])(N4C([H])([H])C([H])([H])OC([H])([H])C4([H])[H])C([H])([H])C3([H])[H])c([H])c2OC([H])([H])[H])nc(N([H])c2c([H])c([H])c([H])c([H])c2S(=O)(=O)C([H])(C([H])([H])[H])C([H])([H])[H])c1Cl


 43 47  0  0  0  0  0  0  0  0999 V2000
  -86.5432   27.9880    1.3596 N   0  0  0  0  0  0  0  0  0  0  0  0
  -85.6182   27.6001    1.7921 H   0  0  0  0  0  0  0  0  0  0  0  0
  -86.4402   29.3181    0.9102 C   0  0  0  0  0  0  0  0  0  0  0  0
  -85.2867   29.9996    1.2454 N   0  0  0  0  0  0  0  0  0  0  0  0
  -85.0250   31.2369    0.8786 C   0  0  0  0  0  0  0  0  0  0  0  0
  -85.9410   31.9204    0.1108 C   0  0  0  0  0  0  0  0  0  0  0  0
  -85.6689   33.5557   -0.4192 Cl  0  0  0  0  0  0  0  0  0  0  0  0
  -87.1372   31.2846   -0.2675 C   0  0  0  0  0  0  0  0  0  0  0  0
  -87.2954   30.0116    0.1700 N   0  0  0  0  0  0  0  0  0  0  0  0
  -88.0509   32.0219   -1.0244 N   0  0  0  0  0  0  0  0  0  0  0  0
  -88.7076   32.6433   -0.4563 H   0  0  0  0  0  0  0  0  0  0  0  0
  -88.2554   32.1126   -2.4154 C   0  0  0  0  0  0  0  0  0  0  0  0
  -87.4557   32.8575   -3.2424 C   0  0  0  0  0  0  0  0  0  0  0  0
  -87.7397   32.9638   -4.5873 C   0  0  0  0  0  0  0  0  0  0  0  0
  -88.8228   32.3360   -5.1489 C   0  0  0  0  0  0  0  0  0  0  0  0
  -89.6442   31.5766   -4.3272 C   0  0  0  0  0  0  0  0  0  0  0  0
  -89.3696   31.4642   -2.9835 C   0  0  0  0  0  0  0  0  0  0  0  0
  -90.4414   30.4761   -2.0411 S   0  0  0  0  0  0  0  0  0  0  0  0
  -89.7770   29.2992   -1.3947 O   0  0  0  0  0  0  0  0  0  0  0  0
  -90.9492   31.3234   -0.8678 O   0  0  0  0  0  0  0  0  0  0  0  0
  -91.8372   29.9470   -2.9678 C   0  0  0  0  0  0  0  0  0  0  0  0
  -92.0547   28.4292   -2.7380 C   0  0  0  0  0  0  0  0  0  0  0  0
  -93.0973   30.7017   -2.6416 C   0  0  0  0  0  0  0  0  0  0  0  0
  -87.8505   26.3689    0.1834 C   0  0  0  0  0  0  0  0  0  0  0  0
  -88.8762   25.4538    0.1813 C   0  0  0  0  0  0  0  0  0  0  0  0
  -89.6840   25.2234    1.2906 C   0  0  0  0  0  0  0  0  0  0  0  0
  -89.4325   25.9483    2.4234 C   0  0  0  0  0  0  0  0  0  0  0  0
  -88.3942   26.8919    2.4668 C   0  0  0  0  0  0  0  0  0  0  0  0
  -87.6150   27.0954    1.3548 C   0  0  0  0  0  0  0  0  0  0  0  0
  -90.7519   24.2865    1.2764 N   0  0  0  0  0  0  0  0  0  0  0  0
  -92.0022   24.5934    0.5771 C   0  0  0  0  0  0  0  0  0  0  0  0
  -92.7715   23.2961    0.3335 C   0  0  0  0  0  0  0  0  0  0  0  0
  -91.8287   22.2551   -0.1959 C   0  0  0  0  0  0  0  0  0  0  0  0
  -90.9390   21.8420    0.9572 C   0  0  0  0  0  0  0  0  0  0  0  0
  -90.6993   22.9984    1.9110 C   0  0  0  0  0  0  0  0  0  0  0  0
  -92.5329   21.0897   -0.6560 N   0  0  0  0  0  0  0  0  0  0  0  0
  -93.6222   21.4849   -1.5581 C   0  0  0  0  0  0  0  0  0  0  0  0
  -94.2510   20.1922   -2.0484 C   0  0  0  0  0  0  0  0  0  0  0  0
  -94.8108   19.4685   -1.0017 O   0  0  0  0  0  0  0  0  0  0  0  0
  -93.7597   19.0991   -0.1704 C   0  0  0  0  0  0  0  0  0  0  0  0
  -93.1819   20.3664    0.4233 C   0  0  0  0  0  0  0  0  0  0  0  0
  -87.5860   27.3034   -2.0270 C   0  0  0  0  0  0  0  0  0  0  0  0
  -87.0502   26.5940   -0.9240 O   0  0  0  0  0  0  0  0  0  0  0  0
 42 43  1  0  0  0
 43 24  1  0  0  0
 24 25  2  0  0  0
 25 26  1  0  0  0
 26 27  2  0  0  0
 27 28  1  0  0  0
 28 29  2  0  0  0
 29  1  1  0  0  0
  1  3  1  0  0  0
  3  4  2  0  0  0
  4  5  1  0  0  0
  5  6  2  0  0  0
  6  7  1  0  0  0
  6  8  1  0  0  0
  8 10  1  0  0  0
 10 12  1  0  0  0
 12 13  2  0  0  0
 13 14  1  0  0  0
 14 15  2  0  0  0
 15 16  1  0  0  0
 16 17  2  0  0  0
 17 18  1  0  0  0
 18 19  2  0  0  0
 18 20  2  0  0  0
 18 21  1  0  0  0
 21 22  1  0  0  0
 21 23  1  0  0  0
  8  9  2  0  0  0
 26 30  1  0  0  0
 30 31  1  0  0  0
 31 32  1  0  0  0
 32 33  1  0  0  0
 33 34  1  0  0  0
 34 35  1  0  0  0
 33 36  1  0  0  0
 36 37  1  0  0  0
 37 38  1  0  0  0
 38 39  1  0  0  0
 39 40  1  0  0  0
 40 41  1  0  0  0
 29 24  1  0  0  0
  9  3  1  0  0  0
 35 30  1  0  0  0
 41 36  1  0  0  0
 17 12  1  0  0  0
  1  2  1  0  0  0
 10 11  1  0  0  0
M  END
> <minimizedAffinity>
-6.81919

> <CNNscore>
0.0541459806

> <CNNaffinity>
6.6384077072

> <CNN_VS>
0.3594430983

> <CNNaffinity_variance>
0.2726615071

$$$$
[H]c1nc(N([H])c2c([H])c([H])c(N3C([H])([H])C([H])([H])C([H])(N4C([H])([H])C([H])([H])OC([H])([H])C4([H])[H])C([H])([H])C3([H])[H])c([H])c2OC([H])([H])[H])nc(N([H])c2c([H])c([H])c([H])c([H])c2S(=O)(=O)C([H])(C([H])([H])[H])C([H])([H])[H])c1Cl


 43 47  0  0  0  0  0  0  0  0999 V2000
  -86.2972   31.9272    0.0498 N   0  0  0  0  0  0  0  0  0  0  0  0
  -85.5540   32.4886    0.6204 H   0  0  0  0  0  0  0  0  0  0  0  0
  -86.4113   30.5808    0.4448 C   0  0  0  0  0  0  0  0  0  0  0  0
  -85.2418   29.9349    0.7950 N   0  0  0  0  0  0  0  0  0  0  0  0
  -85.1818   28.6877    1.2127 C   0  0  0  0  0  0  0  0  0  0  0  0
  -86.3430   27.9554    1.3180 C   0  0  0  0  0  0  0  0  0  0  0  0
  -86.3500   26.3037    1.8664 Cl  0  0  0  0  0  0  0  0  0  0  0  0
  -87.5701   28.5530    0.9784 C   0  0  0  0  0  0  0  0  0  0  0  0
  -87.5063   29.8409    0.5609 N   0  0  0  0  0  0  0  0  0  0  0  0
  -88.7213   27.7675    1.0745 N   0  0  0  0  0  0  0  0  0  0  0  0
  -89.1745   27.5177    0.1405 H   0  0  0  0  0  0  0  0  0  0  0  0
  -89.3912   27.2221    2.1875 C   0  0  0  0  0  0  0  0  0  0  0  0
  -89.3273   27.7704    3.4418 C   0  0  0  0  0  0  0  0  0  0  0  0
  -89.9495   27.1591    4.5095 C   0  0  0  0  0  0  0  0  0  0  0  0
  -90.6510   25.9888    4.3637 C   0  0  0  0  0  0  0  0  0  0  0  0
  -90.7271   25.4186    3.1005 C   0  0  0  0  0  0  0  0  0  0  0  0
  -90.1095   26.0208    2.0283 C   0  0  0  0  0  0  0  0  0  0  0  0
  -90.2784   25.2445    0.4849 S   0  0  0  0  0  0  0  0  0  0  0  0
  -90.8567   26.1241   -0.5811 O   0  0  0  0  0  0  0  0  0  0  0  0
  -88.8725   24.8995   -0.0221 O   0  0  0  0  0  0  0  0  0  0  0  0
  -91.1937   23.7488    0.5951 C   0  0  0  0  0  0  0  0  0  0  0  0
  -92.1947   23.6768   -0.5867 C   0  0  0  0  0  0  0  0  0  0  0  0
  -90.3317   22.5158    0.6140 C   0  0  0  0  0  0  0  0  0  0  0  0
  -86.1782   33.2574   -1.9328 C   0  0  0  0  0  0  0  0  0  0  0  0
  -86.8204   33.9396   -2.9385 C   0  0  0  0  0  0  0  0  0  0  0  0
  -88.2054   34.0540   -3.0078 C   0  0  0  0  0  0  0  0  0  0  0  0
  -88.9440   33.4559   -2.0235 C   0  0  0  0  0  0  0  0  0  0  0  0
  -88.3267   32.7493   -0.9794 C   0  0  0  0  0  0  0  0  0  0  0  0
  -86.9575   32.6549   -0.9402 C   0  0  0  0  0  0  0  0  0  0  0  0
  -88.8616   34.7735   -4.0422 N   0  0  0  0  0  0  0  0  0  0  0  0
  -88.1336   35.1712   -5.2498 C   0  0  0  0  0  0  0  0  0  0  0  0
  -89.1369   35.5078   -6.3517 C   0  0  0  0  0  0  0  0  0  0  0  0
  -90.1894   34.4390   -6.4041 C   0  0  0  0  0  0  0  0  0  0  0  0
  -91.0540   34.6140   -5.1738 C   0  0  0  0  0  0  0  0  0  0  0  0
  -90.2478   35.1501   -4.0045 C   0  0  0  0  0  0  0  0  0  0  0  0
  -91.0282   34.5800   -7.5627 N   0  0  0  0  0  0  0  0  0  0  0  0
  -91.5191   35.9605   -7.6620 C   0  0  0  0  0  0  0  0  0  0  0  0
  -92.3241   36.0282   -8.9481 C   0  0  0  0  0  0  0  0  0  0  0  0
  -93.4311   35.1884   -8.9015 O   0  0  0  0  0  0  0  0  0  0  0  0
  -92.9393   33.8910   -8.8182 C   0  0  0  0  0  0  0  0  0  0  0  0
  -92.2244   33.7596   -7.4900 C   0  0  0  0  0  0  0  0  0  0  0  0
  -84.1183   33.6752   -0.7447 C   0  0  0  0  0  0  0  0  0  0  0  0
  -84.7993   33.1473   -1.8693 O   0  0  0  0  0  0  0  0  0  0  0  0
 42 43  1  0  0  0
 43 24  1  0  0  0
 24 25  2  0  0  0
 25 26  1  0  0  0
 26 27  2  0  0  0
 27 28  1  0  0  0
 28 29  2  0  0  0
 29  1  1  0  0  0
  1  3  1  0  0  0
  3  4  2  0  0  0
  4  5  1  0  0  0
  5  6  2  0  0  0
  6  7  1  0  0  0
  6  8  1  0  0  0
  8 10  1  0  0  0
 10 12  1  0  0  0
 12 13  2  0  0  0
 13 14  1  0  0  0
 14 15  2  0  0  0
 15 16  1  0  0  0
 16 17  2  0  0  0
 17 18  1  0  0  0
 18 19  2  0  0  0
 18 20  2  0  0  0
 18 21  1  0  0  0
 21 22  1  0  0  0
 21 23  1  0  0  0
  8  9  2  0  0  0
 26 30  1  0  0  0
 30 31  1  0  0  0
 31 32  1  0  0  0
 32 33  1  0  0  0
 33 34  1  0  0  0
 34 35  1  0  0  0
 33 36  1  0  0  0
 36 37  1  0  0  0
 37 38  1  0  0  0
 38 39  1  0  0  0
 39 40  1  0  0  0
 40 41  1  0  0  0
 29 24  1  0  0  0
  9  3  1  0  0  0
 35 30  1  0  0  0
 41 36  1  0  0  0
 17 12  1  0  0  0
  1  2  1  0  0  0
 10 11  1  0  0  0
M  END
> <minimizedAffinity>
-7.89923

> <CNNscore>
0.0460489951

> <CNNaffinity>
6.3263664246

> <CNN_VS>
0.2913228273

> <CNNaffinity_variance>
0.6059242487

$$$$
[H]c1nc(N([H])c2c([H])c([H])c(N3C([H])([H])C([H])([H])C([H])(N4C([H])([H])C([H])([H])OC([H])([H])C4([H])[H])C([H])([H])C3([H])[H])c([H])c2OC([H])([H])[H])nc(N([H])c2c([H])c([H])c([H])c([H])c2S(=O)(=O)C([H])(C([H])([H])[H])C([H])([H])[H])c1Cl


 43 47  0  0  0  0  0  0  0  0999 V2000
  -86.2119   32.1888    0.5168 N   0  0  0  0  0  0  0  0  0  0  0  0
  -86.0753   32.9797    1.2576 H   0  0  0  0  0  0  0  0  0  0  0  0
  -85.7805   30.9234    0.9578 C   0  0  0  0  0  0  0  0  0  0  0  0
  -84.5500   30.8694    1.5825 N   0  0  0  0  0  0  0  0  0  0  0  0
  -84.0183   29.7707    2.0764 C   0  0  0  0  0  0  0  0  0  0  0  0
  -84.7103   28.5843    1.9793 C   0  0  0  0  0  0  0  0  0  0  0  0
  -84.0798   27.0900    2.6105 Cl  0  0  0  0  0  0  0  0  0  0  0  0
  -85.9708   28.5686    1.3557 C   0  0  0  0  0  0  0  0  0  0  0  0
  -86.4141   29.7600    0.8856 N   0  0  0  0  0  0  0  0  0  0  0  0
  -86.6279   27.3399    1.2549 N   0  0  0  0  0  0  0  0  0  0  0  0
  -86.0465   26.5528    0.8276 H   0  0  0  0  0  0  0  0  0  0  0  0
  -87.9238   26.9383    1.6347 C   0  0  0  0  0  0  0  0  0  0  0  0
  -88.2924   26.7364    2.9391 C   0  0  0  0  0  0  0  0  0  0  0  0
  -89.5556   26.2803    3.2508 C   0  0  0  0  0  0  0  0  0  0  0  0
  -90.4869   26.0118    2.2795 C   0  0  0  0  0  0  0  0  0  0  0  0
  -90.1320   26.2107    0.9525 C   0  0  0  0  0  0  0  0  0  0  0  0
  -88.8737   26.6656    0.6308 C   0  0  0  0  0  0  0  0  0  0  0  0
  -88.5298   26.9039   -1.0539 S   0  0  0  0  0  0  0  0  0  0  0  0
  -87.1340   26.5317   -1.4508 O   0  0  0  0  0  0  0  0  0  0  0  0
  -89.4246   25.9491   -1.8541 O   0  0  0  0  0  0  0  0  0  0  0  0
  -88.8886   28.5429   -1.5752 C   0  0  0  0  0  0  0  0  0  0  0  0
  -87.9377   28.9263   -2.7383 C   0  0  0  0  0  0  0  0  0  0  0  0
  -90.3197   28.7412   -1.9951 C   0  0  0  0  0  0  0  0  0  0  0  0
  -85.9870   33.4055   -1.5285 C   0  0  0  0  0  0  0  0  0  0  0  0
  -86.5082   33.7808   -2.7437 C   0  0  0  0  0  0  0  0  0  0  0  0
  -87.7741   33.3948   -3.1735 C   0  0  0  0  0  0  0  0  0  0  0  0
  -88.5184   32.6082   -2.3372 C   0  0  0  0  0  0  0  0  0  0  0  0
  -88.0223   32.2026   -1.0882 C   0  0  0  0  0  0  0  0  0  0  0  0
  -86.7688   32.6007   -0.6938 C   0  0  0  0  0  0  0  0  0  0  0  0
  -88.3122   33.7990   -4.4246 N   0  0  0  0  0  0  0  0  0  0  0  0
  -89.4102   33.0493   -5.0399 C   0  0  0  0  0  0  0  0  0  0  0  0
  -90.0791   33.9210   -6.1015 C   0  0  0  0  0  0  0  0  0  0  0  0
  -90.3039   35.2953   -5.5417 C   0  0  0  0  0  0  0  0  0  0  0  0
  -88.9461   35.9584   -5.4482 C   0  0  0  0  0  0  0  0  0  0  0  0
  -87.8543   34.9425   -5.1645 C   0  0  0  0  0  0  0  0  0  0  0  0
  -91.1300   36.0902   -6.4086 N   0  0  0  0  0  0  0  0  0  0  0  0
  -90.5715   36.0969   -7.7668 C   0  0  0  0  0  0  0  0  0  0  0  0
  -91.5478   36.8901   -8.6180 C   0  0  0  0  0  0  0  0  0  0  0  0
  -91.6394   38.2104   -8.1922 O   0  0  0  0  0  0  0  0  0  0  0  0
  -92.1788   38.1759   -6.9116 C   0  0  0  0  0  0  0  0  0  0  0  0
  -91.1739   37.4868   -6.0128 C   0  0  0  0  0  0  0  0  0  0  0  0
  -83.6533   32.8744   -1.2111 C   0  0  0  0  0  0  0  0  0  0  0  0
  -84.7265   33.7932   -1.1063 O   0  0  0  0  0  0  0  0  0  0  0  0
 42 43  1  0  0  0
 43 24  1  0  0  0
 24 25  2  0  0  0
 25 26  1  0  0  0
 26 27  2  0  0  0
 27 28  1  0  0  0
 28 29  2  0  0  0
 29  1  1  0  0  0
  1  3  1  0  0  0
  3  4  2  0  0  0
  4  5  1  0  0  0
  5  6  2  0  0  0
  6  7  1  0  0  0
  6  8  1  0  0  0
  8 10  1  0  0  0
 10 12  1  0  0  0
 12 13  2  0  0  0
 13 14  1  0  0  0
 14 15  2  0  0  0
 15 16  1  0  0  0
 16 17  2  0  0  0
 17 18  1  0  0  0
 18 19  2  0  0  0
 18 20  2  0  0  0
 18 21  1  0  0  0
 21 22  1  0  0  0
 21 23  1  0  0  0
  8  9  2  0  0  0
 26 30  1  0  0  0
 30 31  1  0  0  0
 31 32  1  0  0  0
 32 33  1  0  0  0
 33 34  1  0  0  0
 34 35  1  0  0  0
 33 36  1  0  0  0
 36 37  1  0  0  0
 37 38  1  0  0  0
 38 39  1  0  0  0
 39 40  1  0  0  0
 40 41  1  0  0  0
 29 24  1  0  0  0
  9  3  1  0  0  0
 35 30  1  0  0  0
 41 36  1  0  0  0
 17 12  1  0  0  0
  1  2  1  0  0  0
 10 11  1  0  0  0
M  END
> <minimizedAffinity>
-7.39185

> <CNNscore>
0.0408254527

> <CNNaffinity>
6.7951340675

> <CNN_VS>
0.2774144113

> <CNNaffinity_variance>
0.5528834462

$$$$
[H]c1nc(N([H])c2c([H])c([H])c(N3C([H])([H])C([H])([H])C([H])(N4C([H])([H])C([H])([H])OC([H])([H])C4([H])[H])C([H])([H])C3([H])[H])c([H])c2OC([H])([H])[H])nc(N([H])c2c([H])c([H])c([H])c([H])c2S(=O)(=O)C([H])(C([H])([H])[H])C([H])([H])[H])c1Cl


 43 47  0  0  0  0  0  0  0  0999 V2000
  -87.6389   26.2718    1.9885 N   0  0  0  0  0  0  0  0  0  0  0  0
  -87.5502   25.7913    2.9654 H   0  0  0  0  0  0  0  0  0  0  0  0
  -86.6253   27.2140    1.7301 C   0  0  0  0  0  0  0  0  0  0  0  0
  -85.5537   27.2283    2.6013 N   0  0  0  0  0  0  0  0  0  0  0  0
  -84.5137   28.0270    2.4821 C   0  0  0  0  0  0  0  0  0  0  0  0
  -84.4629   28.9153    1.4313 C   0  0  0  0  0  0  0  0  0  0  0  0
  -83.1222   30.0007    1.2001 Cl  0  0  0  0  0  0  0  0  0  0  0  0
  -85.5212   28.9522    0.5057 C   0  0  0  0  0  0  0  0  0  0  0  0
  -86.5369   28.0838    0.7323 N   0  0  0  0  0  0  0  0  0  0  0  0
  -85.4426   29.8856   -0.5306 N   0  0  0  0  0  0  0  0  0  0  0  0
  -84.9957   29.5226   -1.4298 H   0  0  0  0  0  0  0  0  0  0  0  0
  -85.8661   31.2266   -0.6157 C   0  0  0  0  0  0  0  0  0  0  0  0
  -85.1357   32.2749   -0.1198 C   0  0  0  0  0  0  0  0  0  0  0  0
  -85.6275   33.5619   -0.1716 C   0  0  0  0  0  0  0  0  0  0  0  0
  -86.8551   33.8450   -0.7151 C   0  0  0  0  0  0  0  0  0  0  0  0
  -87.6094   32.7962   -1.2228 C   0  0  0  0  0  0  0  0  0  0  0  0
  -87.1277   31.5080   -1.1759 C   0  0  0  0  0  0  0  0  0  0  0  0
  -88.1333   30.2666   -1.8546 S   0  0  0  0  0  0  0  0  0  0  0  0
  -87.3742   29.0943   -2.3968 O   0  0  0  0  0  0  0  0  0  0  0  0
  -88.9851   29.6820   -0.7208 O   0  0  0  0  0  0  0  0  0  0  0  0
  -89.2247   30.8970   -3.0786 C   0  0  0  0  0  0  0  0  0  0  0  0
  -88.4556   31.0487   -4.4163 C   0  0  0  0  0  0  0  0  0  0  0  0
  -90.4515   30.0506   -3.2845 C   0  0  0  0  0  0  0  0  0  0  0  0
  -90.0064   26.0271    1.7658 C   0  0  0  0  0  0  0  0  0  0  0  0
  -91.0904   25.6655    1.0020 C   0  0  0  0  0  0  0  0  0  0  0  0
  -90.9682   25.1427   -0.2817 C   0  0  0  0  0  0  0  0  0  0  0  0
  -89.7071   24.9881   -0.7893 C   0  0  0  0  0  0  0  0  0  0  0  0
  -88.5740   25.3458   -0.0418 C   0  0  0  0  0  0  0  0  0  0  0  0
  -88.7289   25.8593    1.2222 C   0  0  0  0  0  0  0  0  0  0  0  0
  -92.0928   24.7573   -1.0597 N   0  0  0  0  0  0  0  0  0  0  0  0
  -93.4402   25.1975   -0.6896 C   0  0  0  0  0  0  0  0  0  0  0  0
  -94.3674   25.0389   -1.8934 C   0  0  0  0  0  0  0  0  0  0  0  0
  -93.6877   25.5844   -3.1153 C   0  0  0  0  0  0  0  0  0  0  0  0
  -92.5877   24.6093   -3.4775 C   0  0  0  0  0  0  0  0  0  0  0  0
  -92.0117   23.9431   -2.2409 C   0  0  0  0  0  0  0  0  0  0  0  0
  -94.5922   25.6703   -4.2290 N   0  0  0  0  0  0  0  0  0  0  0  0
  -94.3709   24.5430   -5.1437 C   0  0  0  0  0  0  0  0  0  0  0  0
  -95.4168   24.6777   -6.2367 C   0  0  0  0  0  0  0  0  0  0  0  0
  -95.2468   25.8509   -6.9630 O   0  0  0  0  0  0  0  0  0  0  0  0
  -95.4714   26.8992   -6.0783 C   0  0  0  0  0  0  0  0  0  0  0  0
  -94.3741   26.8580   -5.0358 C   0  0  0  0  0  0  0  0  0  0  0  0
  -90.6793   27.8441    3.2062 C   0  0  0  0  0  0  0  0  0  0  0  0
  -90.1345   26.5467    3.0430 O   0  0  0  0  0  0  0  0  0  0  0  0
 42 43  1  0  0  0
 43 24  1  0  0  0
 24 25  2  0  0  0
 25 26  1  0  0  0
 26 27  2  0  0  0
 27 28  1  0  0  0
 28 29  2  0  0  0
 29  1  1  0  0  0
  1  3  1  0  0  0
  3  4  2  0  0  0
  4  5  1  0  0  0
  5  6  2  0  0  0
  6  7  1  0  0  0
  6  8  1  0  0  0
  8 10  1  0  0  0
 10 12  1  0  0  0
 12 13  2  0  0  0
 13 14  1  0  0  0
 14 15  2  0  0  0
 15 16  1  0  0  0
 16 17  2  0  0  0
 17 18  1  0  0  0
 18 19  2  0  0  0
 18 20  2  0  0  0
 18 21  1  0  0  0
 21 22  1  0  0  0
 21 23  1  0  0  0
  8  9  2  0  0  0
 26 30  1  0  0  0
 30 31  1  0  0  0
 31 32  1  0  0  0
 32 33  1  0  0  0
 33 34  1  0  0  0
 34 35  1  0  0  0
 33 36  1  0  0  0
 36 37  1  0  0  0
 37 38  1  0  0  0
 38 39  1  0  0  0
 39 40  1  0  0  0
 40 41  1  0  0  0
 29 24  1  0  0  0
  9  3  1  0  0  0
 35 30  1  0  0  0
 41 36  1  0  0  0
 17 12  1  0  0  0
  1  2  1  0  0  0
 10 11  1  0  0  0
M  END
> <minimizedAffinity>
-7.77990

> <CNNscore>
0.0387936458

> <CNNaffinity>
6.7908415794

> <CNN_VS>
0.2634415030

> <CNNaffinity_variance>
0.2229341567

$$$$
[H]c1nc(N([H])c2c([H])c(C#N)c([H])c(OC([H])([H])[H])c2[H])nc(N([H])c2nc3c(c([H])c2[H])OC(C([H])([H])[H])(C([H])([H])[H])C(=O)N3[H])c1F


 35 38  0  0  0  0  0  0  0  0999 V2000
  -85.5563   28.8676    1.1636 C   0  0  0  0  0  0  0  0  0  0  0  0
  -84.3986   28.7132    1.8064 N   0  0  0  0  0  0  0  0  0  0  0  0
  -83.4491   29.6607    1.8469 C   0  0  0  0  0  0  0  0  0  0  0  0
  -83.7081   30.8388    1.1849 C   0  0  0  0  0  0  0  0  0  0  0  0
  -82.7687   31.8302    1.2004 F   0  0  0  0  0  0  0  0  0  0  0  0
  -84.9124   31.0636    0.4870 C   0  0  0  0  0  0  0  0  0  0  0  0
  -85.7634   30.0392    0.5300 N   0  0  0  0  0  0  0  0  0  0  0  0
  -86.5237   27.8413    1.1495 N   0  0  0  0  0  0  0  0  0  0  0  0
  -86.1754   26.8350    0.9113 H   0  0  0  0  0  0  0  0  0  0  0  0
  -90.1829   28.4490    0.8161 C   0  0  0  0  0  0  0  0  0  0  0  0
  -88.8031   28.4250    0.5304 C   0  0  0  0  0  0  0  0  0  0  0  0
  -87.8951   27.9137    1.4031 C   0  0  0  0  0  0  0  0  0  0  0  0
  -88.4254   27.4122    2.6097 C   0  0  0  0  0  0  0  0  0  0  0  0
  -89.7668   27.4304    2.8997 C   0  0  0  0  0  0  0  0  0  0  0  0
  -90.6666   27.9540    1.9962 C   0  0  0  0  0  0  0  0  0  0  0  0
  -91.7015   28.1333   -1.0415 C   0  0  0  0  0  0  0  0  0  0  0  0
  -91.0522   28.9840   -0.1191 O   0  0  0  0  0  0  0  0  0  0  0  0
  -90.2834   26.9138    4.1358 C   0  0  0  0  0  0  0  0  0  0  0  0
  -90.6999   26.5047    5.1370 N   0  0  0  0  0  0  0  0  0  0  0  0
  -85.0800   32.2869   -0.1507 N   0  0  0  0  0  0  0  0  0  0  0  0
  -84.2768   33.0035   -0.0738 H   0  0  0  0  0  0  0  0  0  0  0  0
  -86.1825   32.7561   -0.9139 C   0  0  0  0  0  0  0  0  0  0  0  0
  -87.5036   32.5492   -0.6353 C   0  0  0  0  0  0  0  0  0  0  0  0
  -88.5305   33.0512   -1.4471 C   0  0  0  0  0  0  0  0  0  0  0  0
  -88.2157   33.7752   -2.5603 C   0  0  0  0  0  0  0  0  0  0  0  0
  -89.2266   34.2813   -3.3779 O   0  0  0  0  0  0  0  0  0  0  0  0
  -88.9966   35.3347   -4.2935 C   0  0  0  0  0  0  0  0  0  0  0  0
  -89.9439   35.2311   -5.4828 C   0  0  0  0  0  0  0  0  0  0  0  0
  -89.1990   36.6847   -3.6481 C   0  0  0  0  0  0  0  0  0  0  0  0
  -87.6181   35.2648   -4.8526 C   0  0  0  0  0  0  0  0  0  0  0  0
  -87.3757   35.6584   -6.0368 O   0  0  0  0  0  0  0  0  0  0  0  0
  -86.5985   34.7447   -4.0126 N   0  0  0  0  0  0  0  0  0  0  0  0
  -86.8845   33.9850   -2.8429 C   0  0  0  0  0  0  0  0  0  0  0  0
  -85.9428   33.4913   -2.0466 N   0  0  0  0  0  0  0  0  0  0  0  0
  -85.6121   34.9396   -4.2833 H   0  0  0  0  0  0  0  0  0  0  0  0
 16 17  1  0  0  0
 17 10  1  0  0  0
 10 11  2  0  0  0
 11 12  1  0  0  0
 12  8  1  0  0  0
  8  1  1  0  0  0
  1  2  2  0  0  0
  2  3  1  0  0  0
  3  4  2  0  0  0
  4  5  1  0  0  0
  4  6  1  0  0  0
  6 20  1  0  0  0
 20 22  1  0  0  0
 22 23  2  0  0  0
 23 24  1  0  0  0
 24 25  2  0  0  0
 25 26  1  0  0  0
 26 27  1  0  0  0
 27 28  1  0  0  0
 27 29  1  0  0  0
 27 30  1  0  0  0
 30 31  2  0  0  0
 30 32  1  0  0  0
 32 33  1  0  0  0
 33 34  2  0  0  0
  6  7  2  0  0  0
 12 13  2  0  0  0
 13 14  1  0  0  0
 14 15  2  0  0  0
 14 18  1  0  0  0
 18 19  3  0  0  0
 15 10  1  0  0  0
  7  1  1  0  0  0
 34 22  1  0  0  0
 33 25  1  0  0  0
  8  9  1  0  0  0
 20 21  1  0  0  0
 32 35  1  0  0  0
M  END
> <minimizedAffinity>
-9.45593

> <CNNscore>
0.7833784223

> <CNNaffinity>
7.4790735245

> <CNN_VS>
5.8589448929

> <CNNaffinity_variance>
0.0998781100

$$$$
[H]c1nc(N([H])c2c([H])c(C#N)c([H])c(OC([H])([H])[H])c2[H])nc(N([H])c2nc3c(c([H])c2[H])OC(C([H])([H])[H])(C([H])([H])[H])C(=O)N3[H])c1F


 35 38  0  0  0  0  0  0  0  0999 V2000
  -85.0494   29.3486    1.6837 C   0  0  0  0  0  0  0  0  0  0  0  0
  -83.7328   29.1830    1.8127 N   0  0  0  0  0  0  0  0  0  0  0  0
  -82.8351   30.0977    1.4146 C   0  0  0  0  0  0  0  0  0  0  0  0
  -83.3235   31.2532    0.8494 C   0  0  0  0  0  0  0  0  0  0  0  0
  -82.4446   32.2111    0.4303 F   0  0  0  0  0  0  0  0  0  0  0  0
  -84.7039   31.4884    0.6850 C   0  0  0  0  0  0  0  0  0  0  0  0
  -85.4789   30.4972    1.1239 N   0  0  0  0  0  0  0  0  0  0  0  0
  -85.9538   28.3571    2.1174 N   0  0  0  0  0  0  0  0  0  0  0  0
  -85.6500   27.7481    2.9703 H   0  0  0  0  0  0  0  0  0  0  0  0
  -89.5280   27.3490    1.8364 C   0  0  0  0  0  0  0  0  0  0  0  0
  -88.2643   27.6436    2.3862 C   0  0  0  0  0  0  0  0  0  0  0  0
  -87.2135   28.0262    1.6135 C   0  0  0  0  0  0  0  0  0  0  0  0
  -87.4726   28.1066    0.2297 C   0  0  0  0  0  0  0  0  0  0  0  0
  -88.6985   27.8220   -0.3178 C   0  0  0  0  0  0  0  0  0  0  0  0
  -89.7478   27.4369    0.4890 C   0  0  0  0  0  0  0  0  0  0  0  0
  -90.6048   27.4733    4.0001 C   0  0  0  0  0  0  0  0  0  0  0  0
  -90.5546   26.9659    2.6825 O   0  0  0  0  0  0  0  0  0  0  0  0
  -88.9383   27.9109   -1.7307 C   0  0  0  0  0  0  0  0  0  0  0  0
  -89.1316   27.9740   -2.8716 N   0  0  0  0  0  0  0  0  0  0  0  0
  -85.0983   32.6870    0.1028 N   0  0  0  0  0  0  0  0  0  0  0  0
  -84.5114   33.5653    0.3233 H   0  0  0  0  0  0  0  0  0  0  0  0
  -86.1916   32.9437   -0.7672 C   0  0  0  0  0  0  0  0  0  0  0  0
  -87.4723   32.4964   -0.6079 C   0  0  0  0  0  0  0  0  0  0  0  0
  -88.4931   32.7994   -1.5199 C   0  0  0  0  0  0  0  0  0  0  0  0
  -88.2137   33.5682   -2.6123 C   0  0  0  0  0  0  0  0  0  0  0  0
  -89.2191   33.8781   -3.5287 O   0  0  0  0  0  0  0  0  0  0  0  0
  -89.1017   34.9552   -4.4381 C   0  0  0  0  0  0  0  0  0  0  0  0
  -89.8978   34.6773   -5.7076 C   0  0  0  0  0  0  0  0  0  0  0  0
  -89.6087   36.2449   -3.8387 C   0  0  0  0  0  0  0  0  0  0  0  0
  -87.6875   35.1408   -4.8664 C   0  0  0  0  0  0  0  0  0  0  0  0
  -87.4114   35.5714   -6.0301 O   0  0  0  0  0  0  0  0  0  0  0  0
  -86.6732   34.8187   -3.9267 N   0  0  0  0  0  0  0  0  0  0  0  0
  -86.9232   34.0202   -2.7748 C   0  0  0  0  0  0  0  0  0  0  0  0
  -85.9858   33.7096   -1.8862 N   0  0  0  0  0  0  0  0  0  0  0  0
  -85.7184   35.1924   -4.1088 H   0  0  0  0  0  0  0  0  0  0  0  0
 16 17  1  0  0  0
 17 10  1  0  0  0
 10 11  2  0  0  0
 11 12  1  0  0  0
 12  8  1  0  0  0
  8  1  1  0  0  0
  1  2  2  0  0  0
  2  3  1  0  0  0
  3  4  2  0  0  0
  4  5  1  0  0  0
  4  6  1  0  0  0
  6 20  1  0  0  0
 20 22  1  0  0  0
 22 23  2  0  0  0
 23 24  1  0  0  0
 24 25  2  0  0  0
 25 26  1  0  0  0
 26 27  1  0  0  0
 27 28  1  0  0  0
 27 29  1  0  0  0
 27 30  1  0  0  0
 30 31  2  0  0  0
 30 32  1  0  0  0
 32 33  1  0  0  0
 33 34  2  0  0  0
  6  7  2  0  0  0
 12 13  2  0  0  0
 13 14  1  0  0  0
 14 15  2  0  0  0
 14 18  1  0  0  0
 18 19  3  0  0  0
 15 10  1  0  0  0
  7  1  1  0  0  0
 34 22  1  0  0  0
 33 25  1  0  0  0
  8  9  1  0  0  0
 20 21  1  0  0  0
 32 35  1  0  0  0
M  END
> <minimizedAffinity>
-9.41122

> <CNNscore>
0.6883681417

> <CNNaffinity>
7.5541954041

> <CNN_VS>
5.2000675201

> <CNNaffinity_variance>
0.1193617582

$$$$
[H]c1nc(N([H])c2c([H])c(C#N)c([H])c(OC([H])([H])[H])c2[H])nc(N([H])c2nc3c(c([H])c2[H])OC(C([H])([H])[H])(C([H])([H])[H])C(=O)N3[H])c1F


 35 38  0  0  0  0  0  0  0  0999 V2000
  -84.6525   32.5449    0.0208 C   0  0  0  0  0  0  0  0  0  0  0  0
  -83.3223   32.5999   -0.0494 N   0  0  0  0  0  0  0  0  0  0  0  0
  -82.5204   31.6506    0.4572 C   0  0  0  0  0  0  0  0  0  0  0  0
  -83.1256   30.5797    1.0736 C   0  0  0  0  0  0  0  0  0  0  0  0
  -82.3468   29.5904    1.6032 F   0  0  0  0  0  0  0  0  0  0  0  0
  -84.5267   30.4630    1.1804 C   0  0  0  0  0  0  0  0  0  0  0  0
  -85.1984   31.4760    0.6344 N   0  0  0  0  0  0  0  0  0  0  0  0
  -85.4534   33.5685   -0.5271 N   0  0  0  0  0  0  0  0  0  0  0  0
  -85.1631   34.5969   -0.3059 H   0  0  0  0  0  0  0  0  0  0  0  0
  -88.8505   32.7456   -1.8126 C   0  0  0  0  0  0  0  0  0  0  0  0
  -87.7150   32.7936   -0.9794 C   0  0  0  0  0  0  0  0  0  0  0  0
  -86.5893   33.4684   -1.3332 C   0  0  0  0  0  0  0  0  0  0  0  0
  -86.6344   34.1133   -2.5864 C   0  0  0  0  0  0  0  0  0  0  0  0
  -87.7338   34.0735   -3.4070 C   0  0  0  0  0  0  0  0  0  0  0  0
  -88.8632   33.3824   -3.0234 C   0  0  0  0  0  0  0  0  0  0  0  0
  -90.5816   31.1147   -2.2595 C   0  0  0  0  0  0  0  0  0  0  0  0
  -89.9637   32.0401   -1.3889 O   0  0  0  0  0  0  0  0  0  0  0  0
  -87.7561   34.7383   -4.6795 C   0  0  0  0  0  0  0  0  0  0  0  0
  -87.7663   35.2783   -5.7049 N   0  0  0  0  0  0  0  0  0  0  0  0
  -85.0426   29.3433    1.8217 N   0  0  0  0  0  0  0  0  0  0  0  0
  -84.6954   29.1377    2.8226 H   0  0  0  0  0  0  0  0  0  0  0  0
  -85.9883   28.3952    1.3477 C   0  0  0  0  0  0  0  0  0  0  0  0
  -86.2404   27.1666    1.8888 C   0  0  0  0  0  0  0  0  0  0  0  0
  -87.1958   26.2912    1.3535 C   0  0  0  0  0  0  0  0  0  0  0  0
  -87.9088   26.6650    0.2514 C   0  0  0  0  0  0  0  0  0  0  0  0
  -88.8628   25.8046   -0.2927 O   0  0  0  0  0  0  0  0  0  0  0  0
  -89.8807   26.2634   -1.1612 C   0  0  0  0  0  0  0  0  0  0  0  0
  -90.3053   25.1603   -2.1233 C   0  0  0  0  0  0  0  0  0  0  0  0
  -91.1015   26.7144   -0.3957 C   0  0  0  0  0  0  0  0  0  0  0  0
  -89.3941   27.3883   -2.0071 C   0  0  0  0  0  0  0  0  0  0  0  0
  -89.8401   27.5562   -3.1856 O   0  0  0  0  0  0  0  0  0  0  0  0
  -88.4207   28.2549   -1.4441 N   0  0  0  0  0  0  0  0  0  0  0  0
  -87.6561   27.9031   -0.2956 C   0  0  0  0  0  0  0  0  0  0  0  0
  -86.7418   28.7019    0.2435 N   0  0  0  0  0  0  0  0  0  0  0  0
  -88.2787   29.1771   -1.9063 H   0  0  0  0  0  0  0  0  0  0  0  0
 16 17  1  0  0  0
 17 10  1  0  0  0
 10 11  2  0  0  0
 11 12  1  0  0  0
 12  8  1  0  0  0
  8  1  1  0  0  0
  1  2  2  0  0  0
  2  3  1  0  0  0
  3  4  2  0  0  0
  4  5  1  0  0  0
  4  6  1  0  0  0
  6 20  1  0  0  0
 20 22  1  0  0  0
 22 23  2  0  0  0
 23 24  1  0  0  0
 24 25  2  0  0  0
 25 26  1  0  0  0
 26 27  1  0  0  0
 27 28  1  0  0  0
 27 29  1  0  0  0
 27 30  1  0  0  0
 30 31  2  0  0  0
 30 32  1  0  0  0
 32 33  1  0  0  0
 33 34  2  0  0  0
  6  7  2  0  0  0
 12 13  2  0  0  0
 13 14  1  0  0  0
 14 15  2  0  0  0
 14 18  1  0  0  0
 18 19  3  0  0  0
 15 10  1  0  0  0
  7  1  1  0  0  0
 34 22  1  0  0  0
 33 25  1  0  0  0
  8  9  1  0  0  0
 20 21  1  0  0  0
 32 35  1  0  0  0
M  END
> <minimizedAffinity>
-9.21452

> <CNNscore>
0.5244737864

> <CNNaffinity>
7.3684754372

> <CNN_VS>
3.8645722866

> <CNNaffinity_variance>
0.0759034827

$$$$
[H]c1nc(N([H])c2c([H])c(C#N)c([H])c(OC([H])([H])[H])c2[H])nc(N([H])c2nc3c(c([H])c2[H])OC(C([H])([H])[H])(C([H])([H])[H])C(=O)N3[H])c1F


 35 38  0  0  0  0  0  0  0  0999 V2000
  -84.4664   32.2694    0.0641 C   0  0  0  0  0  0  0  0  0  0  0  0
  -83.1716   32.4071    0.3507 N   0  0  0  0  0  0  0  0  0  0  0  0
  -82.4468   31.4507    0.9514 C   0  0  0  0  0  0  0  0  0  0  0  0
  -83.0952   30.2815    1.2766 C   0  0  0  0  0  0  0  0  0  0  0  0
  -82.3950   29.2815    1.8892 F   0  0  0  0  0  0  0  0  0  0  0  0
  -84.4622   30.0743    1.0004 C   0  0  0  0  0  0  0  0  0  0  0  0
  -85.0570   31.1059    0.4023 N   0  0  0  0  0  0  0  0  0  0  0  0
  -85.1861   33.3045   -0.5684 N   0  0  0  0  0  0  0  0  0  0  0  0
  -84.7086   34.2846   -0.6128 H   0  0  0  0  0  0  0  0  0  0  0  0
  -88.1054   33.9937   -2.7757 C   0  0  0  0  0  0  0  0  0  0  0  0
  -86.8310   34.0867   -2.1815 C   0  0  0  0  0  0  0  0  0  0  0  0
  -86.4478   33.2687   -1.1658 C   0  0  0  0  0  0  0  0  0  0  0  0
  -87.4091   32.3255   -0.7478 C   0  0  0  0  0  0  0  0  0  0  0  0
  -88.6535   32.2254   -1.3180 C   0  0  0  0  0  0  0  0  0  0  0  0
  -89.0163   33.0670   -2.3477 C   0  0  0  0  0  0  0  0  0  0  0  0
  -87.4023   35.4393   -4.5848 C   0  0  0  0  0  0  0  0  0  0  0  0
  -88.4291   34.8585   -3.8072 O   0  0  0  0  0  0  0  0  0  0  0  0
  -89.6161   31.2564   -0.8750 C   0  0  0  0  0  0  0  0  0  0  0  0
  -90.3994   30.4795   -0.5201 N   0  0  0  0  0  0  0  0  0  0  0  0
  -85.0267   28.8589    1.3679 N   0  0  0  0  0  0  0  0  0  0  0  0
  -84.5117   28.2758    2.1160 H   0  0  0  0  0  0  0  0  0  0  0  0
  -86.2170   28.2441    0.8954 C   0  0  0  0  0  0  0  0  0  0  0  0
  -86.8026   28.4481   -0.3217 C   0  0  0  0  0  0  0  0  0  0  0  0
  -87.9825   27.7960   -0.7068 C   0  0  0  0  0  0  0  0  0  0  0  0
  -88.5806   26.9222    0.1542 C   0  0  0  0  0  0  0  0  0  0  0  0
  -89.7551   26.2658   -0.2148 O   0  0  0  0  0  0  0  0  0  0  0  0
  -90.1993   25.0938    0.4409 C   0  0  0  0  0  0  0  0  0  0  0  0
  -91.7183   24.9854    0.3799 C   0  0  0  0  0  0  0  0  0  0  0  0
  -89.6143   23.8514   -0.1868 C   0  0  0  0  0  0  0  0  0  0  0  0
  -89.8422   25.1226    1.8864 C   0  0  0  0  0  0  0  0  0  0  0  0
  -90.5862   24.5623    2.7515 O   0  0  0  0  0  0  0  0  0  0  0  0
  -88.6469   25.7966    2.2502 N   0  0  0  0  0  0  0  0  0  0  0  0
  -87.9919   26.7152    1.3817 C   0  0  0  0  0  0  0  0  0  0  0  0
  -86.8734   27.3539    1.7065 N   0  0  0  0  0  0  0  0  0  0  0  0
  -88.2538   25.5949    3.1931 H   0  0  0  0  0  0  0  0  0  0  0  0
 16 17  1  0  0  0
 17 10  1  0  0  0
 10 11  2  0  0  0
 11 12  1  0  0  0
 12  8  1  0  0  0
  8  1  1  0  0  0
  1  2  2  0  0  0
  2  3  1  0  0  0
  3  4  2  0  0  0
  4  5  1  0  0  0
  4  6  1  0  0  0
  6 20  1  0  0  0
 20 22  1  0  0  0
 22 23  2  0  0  0
 23 24  1  0  0  0
 24 25  2  0  0  0
 25 26  1  0  0  0
 26 27  1  0  0  0
 27 28  1  0  0  0
 27 29  1  0  0  0
 27 30  1  0  0  0
 30 31  2  0  0  0
 30 32  1  0  0  0
 32 33  1  0  0  0
 33 34  2  0  0  0
  6  7  2  0  0  0
 12 13  2  0  0  0
 13 14  1  0  0  0
 14 15  2  0  0  0
 14 18  1  0  0  0
 18 19  3  0  0  0
 15 10  1  0  0  0
  7  1  1  0  0  0
 34 22  1  0  0  0
 33 25  1  0  0  0
  8  9  1  0  0  0
 20 21  1  0  0  0
 32 35  1  0  0  0
M  END
> <minimizedAffinity>
-9.06404

> <CNNscore>
0.4386717677

> <CNNaffinity>
7.4322524071

> <CNN_VS>
3.2603192329

> <CNNaffinity_variance>
0.2857686281

$$$$
[H]c1nc(N([H])c2c([H])c(C#N)c([H])c(OC([H])([H])[H])c2[H])nc(N([H])c2nc3c(c([H])c2[H])OC(C([H])([H])[H])(C([H])([H])[H])C(=O)N3[H])c1F


 35 38  0  0  0  0  0  0  0  0999 V2000
  -85.0785   32.9794   -0.6104 C   0  0  0  0  0  0  0  0  0  0  0  0
  -83.7575   33.1010   -0.7436 N   0  0  0  0  0  0  0  0  0  0  0  0
  -82.8810   32.2690   -0.1600 C   0  0  0  0  0  0  0  0  0  0  0  0
  -83.3967   31.2501    0.6074 C   0  0  0  0  0  0  0  0  0  0  0  0
  -82.5400   30.3801    1.2196 F   0  0  0  0  0  0  0  0  0  0  0  0
  -84.7832   31.0679    0.7874 C   0  0  0  0  0  0  0  0  0  0  0  0
  -85.5352   31.9655    0.1514 N   0  0  0  0  0  0  0  0  0  0  0  0
  -85.9599   33.8799   -1.2440 N   0  0  0  0  0  0  0  0  0  0  0  0
  -86.0381   34.8807   -0.8162 H   0  0  0  0  0  0  0  0  0  0  0  0
  -87.6862   34.3279   -4.5134 C   0  0  0  0  0  0  0  0  0  0  0  0
  -86.8819   34.5799   -3.3841 C   0  0  0  0  0  0  0  0  0  0  0  0
  -86.7681   33.6861   -2.3663 C   0  0  0  0  0  0  0  0  0  0  0  0
  -87.5079   32.4950   -2.5162 C   0  0  0  0  0  0  0  0  0  0  0  0
  -88.2950   32.2382   -3.6108 C   0  0  0  0  0  0  0  0  0  0  0  0
  -88.3920   33.1617   -4.6296 C   0  0  0  0  0  0  0  0  0  0  0  0
  -87.0521   36.4996   -5.3728 C   0  0  0  0  0  0  0  0  0  0  0  0
  -87.7555   35.2824   -5.5138 O   0  0  0  0  0  0  0  0  0  0  0  0
  -89.0396   31.0174   -3.7410 C   0  0  0  0  0  0  0  0  0  0  0  0
  -89.6352   30.0282   -3.8407 N   0  0  0  0  0  0  0  0  0  0  0  0
  -85.2060   30.0088    1.5816 N   0  0  0  0  0  0  0  0  0  0  0  0
  -84.9387   30.0318    2.6269 H   0  0  0  0  0  0  0  0  0  0  0  0
  -85.9610   28.8617    1.2182 C   0  0  0  0  0  0  0  0  0  0  0  0
  -85.9161   27.6397    1.8270 C   0  0  0  0  0  0  0  0  0  0  0  0
  -86.6996   26.5582    1.4003 C   0  0  0  0  0  0  0  0  0  0  0  0
  -87.5433   26.7153    0.3391 C   0  0  0  0  0  0  0  0  0  0  0  0
  -88.3292   25.6483   -0.0972 O   0  0  0  0  0  0  0  0  0  0  0  0
  -89.4734   25.8389   -0.9068 C   0  0  0  0  0  0  0  0  0  0  0  0
  -89.7184   24.6201   -1.7883 C   0  0  0  0  0  0  0  0  0  0  0  0
  -90.7104   26.0715   -0.0728 C   0  0  0  0  0  0  0  0  0  0  0  0
  -89.2870   26.9907   -1.8321 C   0  0  0  0  0  0  0  0  0  0  0  0
  -89.8320   26.9972   -2.9806 O   0  0  0  0  0  0  0  0  0  0  0  0
  -88.4823   28.0688   -1.3787 N   0  0  0  0  0  0  0  0  0  0  0  0
  -87.5900   27.9464   -0.2760 C   0  0  0  0  0  0  0  0  0  0  0  0
  -86.8303   28.9448    0.1607 N   0  0  0  0  0  0  0  0  0  0  0  0
  -88.5657   28.9732   -1.8881 H   0  0  0  0  0  0  0  0  0  0  0  0
 16 17  1  0  0  0
 17 10  1  0  0  0
 10 11  2  0  0  0
 11 12  1  0  0  0
 12  8  1  0  0  0
  8  1  1  0  0  0
  1  2  2  0  0  0
  2  3  1  0  0  0
  3  4  2  0  0  0
  4  5  1  0  0  0
  4  6  1  0  0  0
  6 20  1  0  0  0
 20 22  1  0  0  0
 22 23  2  0  0  0
 23 24  1  0  0  0
 24 25  2  0  0  0
 25 26  1  0  0  0
 26 27  1  0  0  0
 27 28  1  0  0  0
 27 29  1  0  0  0
 27 30  1  0  0  0
 30 31  2  0  0  0
 30 32  1  0  0  0
 32 33  1  0  0  0
 33 34  2  0  0  0
  6  7  2  0  0  0
 12 13  2  0  0  0
 13 14  1  0  0  0
 14 15  2  0  0  0
 14 18  1  0  0  0
 18 19  3  0  0  0
 15 10  1  0  0  0
  7  1  1  0  0  0
 34 22  1  0  0  0
 33 25  1  0  0  0
  8  9  1  0  0  0
 20 21  1  0  0  0
 32 35  1  0  0  0
M  END
> <minimizedAffinity>
-9.17424

> <CNNscore>
0.4206908941

> <CNNaffinity>
7.2960152626

> <CNN_VS>
3.0693671703

> <CNNaffinity_variance>
0.0780901089

$$$$
[H]c1nc(N([H])c2c([H])c(C#N)c([H])c(OC([H])([H])[H])c2[H])nc(N([H])c2nc3c(c([H])c2[H])OC(C([H])([H])[H])(C([H])([H])[H])C(=O)N3[H])c1F


 35 38  0  0  0  0  0  0  0  0999 V2000
  -85.4015   27.5746    1.9564 C   0  0  0  0  0  0  0  0  0  0  0  0
  -84.2412   27.1194    2.4299 N   0  0  0  0  0  0  0  0  0  0  0  0
  -83.1302   27.8692    2.4959 C   0  0  0  0  0  0  0  0  0  0  0  0
  -83.2200   29.1667    2.0469 C   0  0  0  0  0  0  0  0  0  0  0  0
  -82.1128   29.9650    2.0960 F   0  0  0  0  0  0  0  0  0  0  0  0
  -84.4173   29.7074    1.5350 C   0  0  0  0  0  0  0  0  0  0  0  0
  -85.4391   28.8522    1.5283 N   0  0  0  0  0  0  0  0  0  0  0  0
  -86.5425   26.7470    1.9070 N   0  0  0  0  0  0  0  0  0  0  0  0
  -86.4342   25.7302    2.2878 H   0  0  0  0  0  0  0  0  0  0  0  0
  -90.1533   27.6400    1.7203 C   0  0  0  0  0  0  0  0  0  0  0  0
  -88.8824   27.3243    2.2409 C   0  0  0  0  0  0  0  0  0  0  0  0
  -87.8255   27.0350    1.4366 C   0  0  0  0  0  0  0  0  0  0  0  0
  -88.0867   27.0706    0.0513 C   0  0  0  0  0  0  0  0  0  0  0  0
  -89.3198   27.3762   -0.4679 C   0  0  0  0  0  0  0  0  0  0  0  0
  -90.3748   27.6667    0.3705 C   0  0  0  0  0  0  0  0  0  0  0  0
  -90.9125   28.0843    3.9748 C   0  0  0  0  0  0  0  0  0  0  0  0
  -91.1854   27.9255    2.5976 O   0  0  0  0  0  0  0  0  0  0  0  0
  -89.5618   27.4060   -1.8829 C   0  0  0  0  0  0  0  0  0  0  0  0
  -89.7616   27.4228   -3.0244 N   0  0  0  0  0  0  0  0  0  0  0  0
  -84.4070   31.0291    1.1058 N   0  0  0  0  0  0  0  0  0  0  0  0
  -83.7029   31.6998    1.5738 H   0  0  0  0  0  0  0  0  0  0  0  0
  -85.2070   31.6552    0.1128 C   0  0  0  0  0  0  0  0  0  0  0  0
  -84.9321   32.8341   -0.5201 C   0  0  0  0  0  0  0  0  0  0  0  0
  -85.7816   33.3812   -1.4920 C   0  0  0  0  0  0  0  0  0  0  0  0
  -86.9293   32.7244   -1.8298 C   0  0  0  0  0  0  0  0  0  0  0  0
  -87.7845   33.2564   -2.7952 O   0  0  0  0  0  0  0  0  0  0  0  0
  -88.7539   32.4675   -3.4578 C   0  0  0  0  0  0  0  0  0  0  0  0
  -89.9461   33.3191   -3.8772 C   0  0  0  0  0  0  0  0  0  0  0  0
  -88.1858   31.8135   -4.6945 C   0  0  0  0  0  0  0  0  0  0  0  0
  -89.2930   31.4135   -2.5544 C   0  0  0  0  0  0  0  0  0  0  0  0
  -90.4942   31.0129   -2.6663 O   0  0  0  0  0  0  0  0  0  0  0  0
  -88.4146   30.8824   -1.5737 N   0  0  0  0  0  0  0  0  0  0  0  0
  -87.2082   31.5358   -1.1930 C   0  0  0  0  0  0  0  0  0  0  0  0
  -86.3756   31.0527   -0.2775 N   0  0  0  0  0  0  0  0  0  0  0  0
  -88.6845   29.9797   -1.1304 H   0  0  0  0  0  0  0  0  0  0  0  0
 16 17  1  0  0  0
 17 10  1  0  0  0
 10 11  2  0  0  0
 11 12  1  0  0  0
 12  8  1  0  0  0
  8  1  1  0  0  0
  1  2  2  0  0  0
  2  3  1  0  0  0
  3  4  2  0  0  0
  4  5  1  0  0  0
  4  6  1  0  0  0
  6 20  1  0  0  0
 20 22  1  0  0  0
 22 23  2  0  0  0
 23 24  1  0  0  0
 24 25  2  0  0  0
 25 26  1  0  0  0
 26 27  1  0  0  0
 27 28  1  0  0  0
 27 29  1  0  0  0
 27 30  1  0  0  0
 30 31  2  0  0  0
 30 32  1  0  0  0
 32 33  1  0  0  0
 33 34  2  0  0  0
  6  7  2  0  0  0
 12 13  2  0  0  0
 13 14  1  0  0  0
 14 15  2  0  0  0
 14 18  1  0  0  0
 18 19  3  0  0  0
 15 10  1  0  0  0
  7  1  1  0  0  0
 34 22  1  0  0  0
 33 25  1  0  0  0
  8  9  1  0  0  0
 20 21  1  0  0  0
 32 35  1  0  0  0
M  END
> <minimizedAffinity>
-9.31199

> <CNNscore>
0.3920406997

> <CNNaffinity>
7.2577285767

> <CNN_VS>
2.8453249931

> <CNNaffinity_variance>
0.1375256479

$$$$
[H]c1nc(N([H])c2c([H])c(C#N)c([H])c(OC([H])([H])[H])c2[H])nc(N([H])c2nc3c(c([H])c2[H])OC(C([H])([H])[H])(C([H])([H])[H])C(=O)N3[H])c1F


 35 38  0  0  0  0  0  0  0  0999 V2000
  -85.1716   27.6501    1.9460 C   0  0  0  0  0  0  0  0  0  0  0  0
  -83.9430   27.3208    2.3454 N   0  0  0  0  0  0  0  0  0  0  0  0
  -82.9162   28.1849    2.3502 C   0  0  0  0  0  0  0  0  0  0  0  0
  -83.1706   29.4659    1.9172 C   0  0  0  0  0  0  0  0  0  0  0  0
  -82.1538   30.3778    1.9058 F   0  0  0  0  0  0  0  0  0  0  0  0
  -84.4475   29.8762    1.4824 C   0  0  0  0  0  0  0  0  0  0  0  0
  -85.3710   28.9169    1.5307 N   0  0  0  0  0  0  0  0  0  0  0  0
  -86.2189   26.7055    1.9590 N   0  0  0  0  0  0  0  0  0  0  0  0
  -85.9395   25.6572    2.0760 H   0  0  0  0  0  0  0  0  0  0  0  0
  -89.6002   27.5588    0.6517 C   0  0  0  0  0  0  0  0  0  0  0  0
  -88.2023   27.3999    0.7326 C   0  0  0  0  0  0  0  0  0  0  0  0
  -87.5959   26.9086    1.8455 C   0  0  0  0  0  0  0  0  0  0  0  0
  -88.4574   26.5715    2.9099 C   0  0  0  0  0  0  0  0  0  0  0  0
  -89.8199   26.7220    2.8434 C   0  0  0  0  0  0  0  0  0  0  0  0
  -90.4095   27.2220    1.7021 C   0  0  0  0  0  0  0  0  0  0  0  0
  -90.3630   27.2100   -1.6183 C   0  0  0  0  0  0  0  0  0  0  0  0
  -90.1513   28.0645   -0.5133 O   0  0  0  0  0  0  0  0  0  0  0  0
  -90.6770   26.3717    3.9409 C   0  0  0  0  0  0  0  0  0  0  0  0
  -91.3757   26.0913    4.8220 N   0  0  0  0  0  0  0  0  0  0  0  0
  -84.6040   31.1919    1.0633 N   0  0  0  0  0  0  0  0  0  0  0  0
  -84.0282   31.9493    1.5728 H   0  0  0  0  0  0  0  0  0  0  0  0
  -85.4328   31.7120    0.0334 C   0  0  0  0  0  0  0  0  0  0  0  0
  -85.2181   32.8618   -0.6721 C   0  0  0  0  0  0  0  0  0  0  0  0
  -86.0921   33.3017   -1.6761 C   0  0  0  0  0  0  0  0  0  0  0  0
  -87.2029   32.5659   -1.9718 C   0  0  0  0  0  0  0  0  0  0  0  0
  -88.0820   32.9909   -2.9683 O   0  0  0  0  0  0  0  0  0  0  0  0
  -89.0067   32.1124   -3.5800 C   0  0  0  0  0  0  0  0  0  0  0  0
  -90.2407   32.8724   -4.0514 C   0  0  0  0  0  0  0  0  0  0  0  0
  -88.4014   31.4131   -4.7735 C   0  0  0  0  0  0  0  0  0  0  0  0
  -89.4925   31.0901   -2.6122 C   0  0  0  0  0  0  0  0  0  0  0  0
  -90.6708   30.6208   -2.6984 O   0  0  0  0  0  0  0  0  0  0  0  0
  -88.5904   30.6681   -1.6005 N   0  0  0  0  0  0  0  0  0  0  0  0
  -87.4211   31.4064   -1.2618 C   0  0  0  0  0  0  0  0  0  0  0  0
  -86.5670   31.0258   -0.3181 N   0  0  0  0  0  0  0  0  0  0  0  0
  -88.8140   29.7820   -1.1015 H   0  0  0  0  0  0  0  0  0  0  0  0
 16 17  1  0  0  0
 17 10  1  0  0  0
 10 11  2  0  0  0
 11 12  1  0  0  0
 12  8  1  0  0  0
  8  1  1  0  0  0
  1  2  2  0  0  0
  2  3  1  0  0  0
  3  4  2  0  0  0
  4  5  1  0  0  0
  4  6  1  0  0  0
  6 20  1  0  0  0
 20 22  1  0  0  0
 22 23  2  0  0  0
 23 24  1  0  0  0
 24 25  2  0  0  0
 25 26  1  0  0  0
 26 27  1  0  0  0
 27 28  1  0  0  0
 27 29  1  0  0  0
 27 30  1  0  0  0
 30 31  2  0  0  0
 30 32  1  0  0  0
 32 33  1  0  0  0
 33 34  2  0  0  0
  6  7  2  0  0  0
 12 13  2  0  0  0
 13 14  1  0  0  0
 14 15  2  0  0  0
 14 18  1  0  0  0
 18 19  3  0  0  0
 15 10  1  0  0  0
  7  1  1  0  0  0
 34 22  1  0  0  0
 33 25  1  0  0  0
  8  9  1  0  0  0
 20 21  1  0  0  0
 32 35  1  0  0  0
M  END
> <minimizedAffinity>
-9.28670

> <CNNscore>
0.3564194739

> <CNNaffinity>
7.1160202026

> <CNN_VS>
2.5362882614

> <CNNaffinity_variance>
0.2763993144

$$$$
[H]c1nc(N([H])c2c([H])c(C#N)c([H])c(OC([H])([H])[H])c2[H])nc(N([H])c2nc3c(c([H])c2[H])OC(C([H])([H])[H])(C([H])([H])[H])C(=O)N3[H])c1F


 35 38  0  0  0  0  0  0  0  0999 V2000
  -84.6665   32.3074    0.1604 C   0  0  0  0  0  0  0  0  0  0  0  0
  -83.3596   32.4448    0.3854 N   0  0  0  0  0  0  0  0  0  0  0  0
  -82.5959   31.4675    0.8979 C   0  0  0  0  0  0  0  0  0  0  0  0
  -83.2163   30.2763    1.1967 C   0  0  0  0  0  0  0  0  0  0  0  0
  -82.4763   29.2546    1.7202 F   0  0  0  0  0  0  0  0  0  0  0  0
  -84.5942   30.0681    0.9823 C   0  0  0  0  0  0  0  0  0  0  0  0
  -85.2285   31.1218    0.4695 N   0  0  0  0  0  0  0  0  0  0  0  0
  -85.4273   33.3649   -0.3801 N   0  0  0  0  0  0  0  0  0  0  0  0
  -85.1038   34.3797   -0.1432 H   0  0  0  0  0  0  0  0  0  0  0  0
  -88.8378   32.6698   -1.7050 C   0  0  0  0  0  0  0  0  0  0  0  0
  -87.7079   32.6680   -0.8629 C   0  0  0  0  0  0  0  0  0  0  0  0
  -86.5595   33.3142   -1.1961 C   0  0  0  0  0  0  0  0  0  0  0  0
  -86.5751   33.9828   -2.4376 C   0  0  0  0  0  0  0  0  0  0  0  0
  -87.6688   33.9916   -3.2667 C   0  0  0  0  0  0  0  0  0  0  0  0
  -88.8217   33.3286   -2.9040 C   0  0  0  0  0  0  0  0  0  0  0  0
  -90.5073   30.9671   -2.1174 C   0  0  0  0  0  0  0  0  0  0  0  0
  -89.9754   31.9913   -1.3024 O   0  0  0  0  0  0  0  0  0  0  0  0
  -87.6608   34.6797   -4.5269 C   0  0  0  0  0  0  0  0  0  0  0  0
  -87.6482   35.2298   -5.5469 N   0  0  0  0  0  0  0  0  0  0  0  0
  -85.1282   28.8295    1.3166 N   0  0  0  0  0  0  0  0  0  0  0  0
  -84.5967   28.2379    2.0462 H   0  0  0  0  0  0  0  0  0  0  0  0
  -86.3052   28.2000    0.8303 C   0  0  0  0  0  0  0  0  0  0  0  0
  -86.8592   28.3700   -0.4067 C   0  0  0  0  0  0  0  0  0  0  0  0
  -88.0280   27.7057   -0.8045 C   0  0  0  0  0  0  0  0  0  0  0  0
  -88.6473   26.8544    0.0641 C   0  0  0  0  0  0  0  0  0  0  0  0
  -89.8111   26.1862   -0.3174 O   0  0  0  0  0  0  0  0  0  0  0  0
  -90.2710   25.0315    0.3581 C   0  0  0  0  0  0  0  0  0  0  0  0
  -91.7877   24.9189    0.2607 C   0  0  0  0  0  0  0  0  0  0  0  0
  -89.6685   23.7736   -0.2203 C   0  0  0  0  0  0  0  0  0  0  0  0
  -89.9516   25.1001    1.8110 C   0  0  0  0  0  0  0  0  0  0  0  0
  -90.7171   24.5620    2.6715 O   0  0  0  0  0  0  0  0  0  0  0  0
  -88.7668   25.7858    2.1874 N   0  0  0  0  0  0  0  0  0  0  0  0
  -88.0904   26.6817    1.3115 C   0  0  0  0  0  0  0  0  0  0  0  0
  -86.9814   27.3310    1.6479 N   0  0  0  0  0  0  0  0  0  0  0  0
  -88.3981   25.6103    3.1453 H   0  0  0  0  0  0  0  0  0  0  0  0
 16 17  1  0  0  0
 17 10  1  0  0  0
 10 11  2  0  0  0
 11 12  1  0  0  0
 12  8  1  0  0  0
  8  1  1  0  0  0
  1  2  2  0  0  0
  2  3  1  0  0  0
  3  4  2  0  0  0
  4  5  1  0  0  0
  4  6  1  0  0  0
  6 20  1  0  0  0
 20 22  1  0  0  0
 22 23  2  0  0  0
 23 24  1  0  0  0
 24 25  2  0  0  0
 25 26  1  0  0  0
 26 27  1  0  0  0
 27 28  1  0  0  0
 27 29  1  0  0  0
 27 30  1  0  0  0
 30 31  2  0  0  0
 30 32  1  0  0  0
 32 33  1  0  0  0
 33 34  2  0  0  0
  6  7  2  0  0  0
 12 13  2  0  0  0
 13 14  1  0  0  0
 14 15  2  0  0  0
 14 18  1  0  0  0
 18 19  3  0  0  0
 15 10  1  0  0  0
  7  1  1  0  0  0
 34 22  1  0  0  0
 33 25  1  0  0  0
  8  9  1  0  0  0
 20 21  1  0  0  0
 32 35  1  0  0  0
M  END
> <minimizedAffinity>
-9.14682

> <CNNscore>
0.3202869296

> <CNNaffinity>
7.2452621460

> <CNN_VS>
2.3205628395

> <CNNaffinity_variance>
0.2649689615

$$$$
[H]c1nc(N([H])c2c([H])c(C#N)c([H])c(OC([H])([H])[H])c2[H])nc(N([H])c2nc3c(c([H])c2[H])OC(C([H])([H])[H])(C([H])([H])[H])C(=O)N3[H])c1F


 35 38  0  0  0  0  0  0  0  0999 V2000
  -85.5865   27.5904    2.1025 C   0  0  0  0  0  0  0  0  0  0  0  0
  -84.4058   27.0720    2.4413 N   0  0  0  0  0  0  0  0  0  0  0  0
  -83.2683   27.7839    2.4556 C   0  0  0  0  0  0  0  0  0  0  0  0
  -83.3522   29.1102    2.0992 C   0  0  0  0  0  0  0  0  0  0  0  0
  -82.2183   29.8716    2.1002 F   0  0  0  0  0  0  0  0  0  0  0  0
  -84.5702   29.7174    1.7310 C   0  0  0  0  0  0  0  0  0  0  0  0
  -85.6175   28.8940    1.7611 N   0  0  0  0  0  0  0  0  0  0  0  0
  -86.7552   26.8008    2.1025 N   0  0  0  0  0  0  0  0  0  0  0  0
  -86.9237   26.1649    2.9730 H   0  0  0  0  0  0  0  0  0  0  0  0
  -89.9125   25.9618    0.3143 C   0  0  0  0  0  0  0  0  0  0  0  0
  -88.9115   26.0041    1.3053 C   0  0  0  0  0  0  0  0  0  0  0  0
  -87.7596   26.7057    1.1368 C   0  0  0  0  0  0  0  0  0  0  0  0
  -87.6341   27.3843   -0.0929 C   0  0  0  0  0  0  0  0  0  0  0  0
  -88.6014   27.3505   -1.0659 C   0  0  0  0  0  0  0  0  0  0  0  0
  -89.7611   26.6318   -0.8689 C   0  0  0  0  0  0  0  0  0  0  0  0
  -92.0275   25.0837   -0.4683 C   0  0  0  0  0  0  0  0  0  0  0  0
  -91.0618   25.2279    0.5529 O   0  0  0  0  0  0  0  0  0  0  0  0
  -88.4510   28.0499   -2.3109 C   0  0  0  0  0  0  0  0  0  0  0  0
  -88.3332   28.6078   -3.3198 N   0  0  0  0  0  0  0  0  0  0  0  0
  -84.5521   31.0637    1.3870 N   0  0  0  0  0  0  0  0  0  0  0  0
  -83.9253   31.7193    1.9718 H   0  0  0  0  0  0  0  0  0  0  0  0
  -85.2546   31.7332    0.3496 C   0  0  0  0  0  0  0  0  0  0  0  0
  -84.8220   32.8293   -0.3412 C   0  0  0  0  0  0  0  0  0  0  0  0
  -85.5842   33.4283   -1.3541 C   0  0  0  0  0  0  0  0  0  0  0  0
  -86.8053   32.9095   -1.6740 C   0  0  0  0  0  0  0  0  0  0  0  0
  -87.5753   33.4947   -2.6796 O   0  0  0  0  0  0  0  0  0  0  0  0
  -88.6343   32.8039   -3.3139 C   0  0  0  0  0  0  0  0  0  0  0  0
  -89.7008   33.7796   -3.7967 C   0  0  0  0  0  0  0  0  0  0  0  0
  -88.1467   32.0140   -4.5048 C   0  0  0  0  0  0  0  0  0  0  0  0
  -89.3146   31.8808   -2.3637 C   0  0  0  0  0  0  0  0  0  0  0  0
  -90.5571   31.6351   -2.4725 O   0  0  0  0  0  0  0  0  0  0  0  0
  -88.5217   31.2944   -1.3424 N   0  0  0  0  0  0  0  0  0  0  0  0
  -87.2432   31.8046   -0.9787 C   0  0  0  0  0  0  0  0  0  0  0  0
  -86.4889   31.2680   -0.0259 N   0  0  0  0  0  0  0  0  0  0  0  0
  -88.9116   30.4606   -0.8556 H   0  0  0  0  0  0  0  0  0  0  0  0
 16 17  1  0  0  0
 17 10  1  0  0  0
 10 11  2  0  0  0
 11 12  1  0  0  0
 12  8  1  0  0  0
  8  1  1  0  0  0
  1  2  2  0  0  0
  2  3  1  0  0  0
  3  4  2  0  0  0
  4  5  1  0  0  0
  4  6  1  0  0  0
  6 20  1  0  0  0
 20 22  1  0  0  0
 22 23  2  0  0  0
 23 24  1  0  0  0
 24 25  2  0  0  0
 25 26  1  0  0  0
 26 27  1  0  0  0
 27 28  1  0  0  0
 27 29  1  0  0  0
 27 30  1  0  0  0
 30 31  2  0  0  0
 30 32  1  0  0  0
 32 33  1  0  0  0
 33 34  2  0  0  0
  6  7  2  0  0  0
 12 13  2  0  0  0
 13 14  1  0  0  0
 14 15  2  0  0  0
 14 18  1  0  0  0
 18 19  3  0  0  0
 15 10  1  0  0  0
  7  1  1  0  0  0
 34 22  1  0  0  0
 33 25  1  0  0  0
  8  9  1  0  0  0
 20 21  1  0  0  0
 32 35  1  0  0  0
M  END
> <minimizedAffinity>
-9.13429

> <CNNscore>
0.2379173040

> <CNNaffinity>
7.1975555420

> <CNN_VS>
1.7124229670

> <CNNaffinity_variance>
0.3682766557

$$$$
[H]Oc1c([H])c([H])c(N([H])c2nc([H])c(F)c(N([H])c3c([H])c([H])c4c(c3[H])OC(F)(F)O4)n2)c([H])c1Cl


 31 34  0  0  0  0  0  0  0  0999 V2000
  -84.5214   32.7354   -0.3864 C   0  0  0  0  0  0  0  0  0  0  0  0
  -83.1900   32.7133   -0.3764 N   0  0  0  0  0  0  0  0  0  0  0  0
  -82.4681   31.7762    0.2293 C   0  0  0  0  0  0  0  0  0  0  0  0
  -83.0954   30.7517    0.8964 C   0  0  0  0  0  0  0  0  0  0  0  0
  -82.4230   29.7836    1.5227 F   0  0  0  0  0  0  0  0  0  0  0  0
  -84.5097   30.7264    0.9175 C   0  0  0  0  0  0  0  0  0  0  0  0
  -85.1393   31.7140    0.2786 N   0  0  0  0  0  0  0  0  0  0  0  0
  -85.2951   33.7261   -1.0269 N   0  0  0  0  0  0  0  0  0  0  0  0
  -84.8934   34.7145   -1.1583 H   0  0  0  0  0  0  0  0  0  0  0  0
  -90.3403   33.0567   -3.3474 O   0  0  0  0  0  0  0  0  0  0  0  0
  -89.1075   33.1953   -2.7336 C   0  0  0  0  0  0  0  0  0  0  0  0
  -88.9069   32.8058   -1.4264 C   0  0  0  0  0  0  0  0  0  0  0  0
  -87.6475   32.9589   -0.8327 C   0  0  0  0  0  0  0  0  0  0  0  0
  -86.5891   33.4938   -1.5211 C   0  0  0  0  0  0  0  0  0  0  0  0
  -86.8046   33.8893   -2.8599 C   0  0  0  0  0  0  0  0  0  0  0  0
  -88.0376   33.7323   -3.4215 C   0  0  0  0  0  0  0  0  0  0  0  0
  -88.3400   34.2182   -5.0974 Cl  0  0  0  0  0  0  0  0  0  0  0  0
  -91.1452   32.6729   -2.8888 H   0  0  0  0  0  0  0  0  0  0  0  0
  -85.1647   29.6691    1.5791 N   0  0  0  0  0  0  0  0  0  0  0  0
  -85.0377   29.6248    2.6375 H   0  0  0  0  0  0  0  0  0  0  0  0
  -85.9667   28.6782    0.9943 C   0  0  0  0  0  0  0  0  0  0  0  0
  -86.1974   27.4286    1.5356 C   0  0  0  0  0  0  0  0  0  0  0  0
  -87.0221   26.4933    0.9267 C   0  0  0  0  0  0  0  0  0  0  0  0
  -87.6338   26.8239   -0.2639 C   0  0  0  0  0  0  0  0  0  0  0  0
  -88.5035   26.1213   -1.1105 O   0  0  0  0  0  0  0  0  0  0  0  0
  -89.2112   27.1321   -1.8275 C   0  0  0  0  0  0  0  0  0  0  0  0
  -89.7097   26.6886   -3.0145 F   0  0  0  0  0  0  0  0  0  0  0  0
  -90.1357   27.7120   -1.0034 F   0  0  0  0  0  0  0  0  0  0  0  0
  -88.1611   28.0958   -2.0035 O   0  0  0  0  0  0  0  0  0  0  0  0
  -87.4171   28.0679   -0.8246 C   0  0  0  0  0  0  0  0  0  0  0  0
  -86.6067   28.9864   -0.2250 C   0  0  0  0  0  0  0  0  0  0  0  0
 10 11  1  0  0  0
 11 12  2  0  0  0
 12 13  1  0  0  0
 13 14  2  0  0  0
 14  8  1  0  0  0
  8  1  1  0  0  0
  1  2  2  0  0  0
  2  3  1  0  0  0
  3  4  2  0  0  0
  4  5  1  0  0  0
  4  6  1  0  0  0
  6 19  1  0  0  0
 19 21  1  0  0  0
 21 22  2  0  0  0
 22 23  1  0  0  0
 23 24  2  0  0  0
 24 25  1  0  0  0
 25 26  1  0  0  0
 26 27  1  0  0  0
 26 28  1  0  0  0
 26 29  1  0  0  0
 29 30  1  0  0  0
 30 31  2  0  0  0
  6  7  2  0  0  0
 14 15  1  0  0  0
 15 16  2  0  0  0
 16 17  1  0  0  0
 16 11  1  0  0  0
  7  1  1  0  0  0
 31 21  1  0  0  0
 30 24  1  0  0  0
 10 18  1  0  0  0
  8  9  1  0  0  0
 19 20  1  0  0  0
M  END
> <minimizedAffinity>
-9.33900

> <CNNscore>
0.5001097918

> <CNNaffinity>
6.9954247475

> <CNN_VS>
3.4984803200

> <CNNaffinity_variance>
0.0700910389

$$$$
[H]Oc1c([H])c([H])c(N([H])c2nc([H])c(F)c(N([H])c3c([H])c([H])c4c(c3[H])OC(F)(F)O4)n2)c([H])c1Cl


 31 34  0  0  0  0  0  0  0  0999 V2000
  -84.4507   32.3627   -0.0163 C   0  0  0  0  0  0  0  0  0  0  0  0
  -83.2836   32.3886    0.6245 N   0  0  0  0  0  0  0  0  0  0  0  0
  -82.7393   31.3313    1.2177 C   0  0  0  0  0  0  0  0  0  0  0  0
  -83.3880   30.1204    1.1909 C   0  0  0  0  0  0  0  0  0  0  0  0
  -82.8902   29.0251    1.7690 F   0  0  0  0  0  0  0  0  0  0  0  0
  -84.6325   30.0362    0.5232 C   0  0  0  0  0  0  0  0  0  0  0  0
  -85.0909   31.1556   -0.0395 N   0  0  0  0  0  0  0  0  0  0  0  0
  -85.0354   33.4801   -0.6485 N   0  0  0  0  0  0  0  0  0  0  0  0
  -84.5185   34.4226   -0.6509 H   0  0  0  0  0  0  0  0  0  0  0  0
  -90.1216   32.9961   -2.9253 O   0  0  0  0  0  0  0  0  0  0  0  0
  -88.8506   33.1480   -2.3987 C   0  0  0  0  0  0  0  0  0  0  0  0
  -87.8608   33.8145   -3.0892 C   0  0  0  0  0  0  0  0  0  0  0  0
  -86.5839   33.9519   -2.5299 C   0  0  0  0  0  0  0  0  0  0  0  0
  -86.2807   33.4351   -1.2965 C   0  0  0  0  0  0  0  0  0  0  0  0
  -87.3016   32.7544   -0.5969 C   0  0  0  0  0  0  0  0  0  0  0  0
  -88.5390   32.6308   -1.1570 C   0  0  0  0  0  0  0  0  0  0  0  0
  -89.8401   31.7833   -0.3055 Cl  0  0  0  0  0  0  0  0  0  0  0  0
  -90.3941   33.3539   -3.8215 H   0  0  0  0  0  0  0  0  0  0  0  0
  -85.2969   28.7951    0.4696 N   0  0  0  0  0  0  0  0  0  0  0  0
  -84.7057   27.9343    0.6881 H   0  0  0  0  0  0  0  0  0  0  0  0
  -86.6487   28.5763    0.1664 C   0  0  0  0  0  0  0  0  0  0  0  0
  -87.6739   28.5698    1.0920 C   0  0  0  0  0  0  0  0  0  0  0  0
  -89.0001   28.3735    0.7338 C   0  0  0  0  0  0  0  0  0  0  0  0
  -89.3056   28.1768   -0.5962 C   0  0  0  0  0  0  0  0  0  0  0  0
  -90.5163   27.9558   -1.2685 O   0  0  0  0  0  0  0  0  0  0  0  0
  -90.2756   28.3898   -2.6066 C   0  0  0  0  0  0  0  0  0  0  0  0
  -91.1137   27.8103   -3.5100 F   0  0  0  0  0  0  0  0  0  0  0  0
  -90.2553   29.7567   -2.6450 F   0  0  0  0  0  0  0  0  0  0  0  0
  -88.9159   27.9573   -2.7692 O   0  0  0  0  0  0  0  0  0  0  0  0
  -88.2964   28.1784   -1.5397 C   0  0  0  0  0  0  0  0  0  0  0  0
  -86.9934   28.3719   -1.1866 C   0  0  0  0  0  0  0  0  0  0  0  0
 10 11  1  0  0  0
 11 12  2  0  0  0
 12 13  1  0  0  0
 13 14  2  0  0  0
 14  8  1  0  0  0
  8  1  1  0  0  0
  1  2  2  0  0  0
  2  3  1  0  0  0
  3  4  2  0  0  0
  4  5  1  0  0  0
  4  6  1  0  0  0
  6 19  1  0  0  0
 19 21  1  0  0  0
 21 22  2  0  0  0
 22 23  1  0  0  0
 23 24  2  0  0  0
 24 25  1  0  0  0
 25 26  1  0  0  0
 26 27  1  0  0  0
 26 28  1  0  0  0
 26 29  1  0  0  0
 29 30  1  0  0  0
 30 31  2  0  0  0
  6  7  2  0  0  0
 14 15  1  0  0  0
 15 16  2  0  0  0
 16 17  1  0  0  0
 16 11  1  0  0  0
  7  1  1  0  0  0
 31 21  1  0  0  0
 30 24  1  0  0  0
 10 18  1  0  0  0
  8  9  1  0  0  0
 19 20  1  0  0  0
M  END
> <minimizedAffinity>
-8.68901

> <CNNscore>
0.3892488778

> <CNNaffinity>
6.9747605324

> <CNN_VS>
2.7149176598

> <CNNaffinity_variance>
0.0666935891

$$$$
[H]Oc1c([H])c([H])c(N([H])c2nc([H])c(F)c(N([H])c3c([H])c([H])c4c(c3[H])OC(F)(F)O4)n2)c([H])c1Cl


 31 34  0  0  0  0  0  0  0  0999 V2000
  -85.4907   27.4471    2.0568 C   0  0  0  0  0  0  0  0  0  0  0  0
  -84.2555   27.1393    2.4478 N   0  0  0  0  0  0  0  0  0  0  0  0
  -83.2371   27.9928    2.4289 C   0  0  0  0  0  0  0  0  0  0  0  0
  -83.4287   29.2794    1.9862 C   0  0  0  0  0  0  0  0  0  0  0  0
  -82.4440   30.1795    1.9446 F   0  0  0  0  0  0  0  0  0  0  0  0
  -84.7224   29.6602    1.5586 C   0  0  0  0  0  0  0  0  0  0  0  0
  -85.6748   28.7280    1.6177 N   0  0  0  0  0  0  0  0  0  0  0  0
  -86.5772   26.5474    2.0737 N   0  0  0  0  0  0  0  0  0  0  0  0
  -86.4538   25.5702    2.5041 H   0  0  0  0  0  0  0  0  0  0  0  0
  -91.7577   27.8656    0.4269 O   0  0  0  0  0  0  0  0  0  0  0  0
  -90.4641   27.5291    0.7864 C   0  0  0  0  0  0  0  0  0  0  0  0
  -89.5995   26.9370   -0.1094 C   0  0  0  0  0  0  0  0  0  0  0  0
  -88.2961   26.6080    0.2843 C   0  0  0  0  0  0  0  0  0  0  0  0
  -87.8444   26.8592    1.5544 C   0  0  0  0  0  0  0  0  0  0  0  0
  -88.7377   27.4664    2.4646 C   0  0  0  0  0  0  0  0  0  0  0  0
  -90.0029   27.7802    2.0634 C   0  0  0  0  0  0  0  0  0  0  0  0
  -91.1465   28.5420    3.1805 Cl  0  0  0  0  0  0  0  0  0  0  0  0
  -92.1366   27.7029   -0.4871 H   0  0  0  0  0  0  0  0  0  0  0  0
  -84.9367   30.9829    1.1235 N   0  0  0  0  0  0  0  0  0  0  0  0
  -84.3857   31.7416    1.6325 H   0  0  0  0  0  0  0  0  0  0  0  0
  -85.7901   31.4021    0.0924 C   0  0  0  0  0  0  0  0  0  0  0  0
  -85.7875   32.6636   -0.4701 C   0  0  0  0  0  0  0  0  0  0  0  0
  -86.6375   33.0186   -1.5080 C   0  0  0  0  0  0  0  0  0  0  0  0
  -87.5182   32.0765   -1.9956 C   0  0  0  0  0  0  0  0  0  0  0  0
  -88.4837   32.1170   -3.0119 O   0  0  0  0  0  0  0  0  0  0  0  0
  -88.6466   30.7578   -3.4154 C   0  0  0  0  0  0  0  0  0  0  0  0
  -89.8528   30.5203   -4.0010 F   0  0  0  0  0  0  0  0  0  0  0  0
  -87.5667   30.3717   -4.1605 F   0  0  0  0  0  0  0  0  0  0  0  0
  -88.5196   30.1023   -2.1440 O   0  0  0  0  0  0  0  0  0  0  0  0
  -87.5391   30.8082   -1.4479 C   0  0  0  0  0  0  0  0  0  0  0  0
  -86.7030   30.4604   -0.4281 C   0  0  0  0  0  0  0  0  0  0  0  0
 10 11  1  0  0  0
 11 12  2  0  0  0
 12 13  1  0  0  0
 13 14  2  0  0  0
 14  8  1  0  0  0
  8  1  1  0  0  0
  1  2  2  0  0  0
  2  3  1  0  0  0
  3  4  2  0  0  0
  4  5  1  0  0  0
  4  6  1  0  0  0
  6 19  1  0  0  0
 19 21  1  0  0  0
 21 22  2  0  0  0
 22 23  1  0  0  0
 23 24  2  0  0  0
 24 25  1  0  0  0
 25 26  1  0  0  0
 26 27  1  0  0  0
 26 28  1  0  0  0
 26 29  1  0  0  0
 29 30  1  0  0  0
 30 31  2  0  0  0
  6  7  2  0  0  0
 14 15  1  0  0  0
 15 16  2  0  0  0
 16 17  1  0  0  0
 16 11  1  0  0  0
  7  1  1  0  0  0
 31 21  1  0  0  0
 30 24  1  0  0  0
 10 18  1  0  0  0
  8  9  1  0  0  0
 19 20  1  0  0  0
M  END
> <minimizedAffinity>
-9.61967

> <CNNscore>
0.3440286815

> <CNNaffinity>
6.8985710144

> <CNN_VS>
2.3733062744

> <CNNaffinity_variance>
0.1147475988

$$$$
[H]Oc1c([H])c([H])c(N([H])c2nc([H])c(F)c(N([H])c3c([H])c([H])c4c(c3[H])OC(F)(F)O4)n2)c([H])c1Cl


 31 34  0  0  0  0  0  0  0  0999 V2000
  -84.7404   32.1525    0.4488 C   0  0  0  0  0  0  0  0  0  0  0  0
  -83.4248   32.2680    0.6199 N   0  0  0  0  0  0  0  0  0  0  0  0
  -82.6454   31.2872    1.0633 C   0  0  0  0  0  0  0  0  0  0  0  0
  -83.1912   30.0654    1.3753 C   0  0  0  0  0  0  0  0  0  0  0  0
  -82.4584   29.0443    1.8246 F   0  0  0  0  0  0  0  0  0  0  0  0
  -84.5852   29.8876    1.2121 C   0  0  0  0  0  0  0  0  0  0  0  0
  -85.2771   30.9352    0.7607 N   0  0  0  0  0  0  0  0  0  0  0  0
  -85.5748   33.1884   -0.0213 N   0  0  0  0  0  0  0  0  0  0  0  0
  -85.5628   34.1460    0.4668 H   0  0  0  0  0  0  0  0  0  0  0  0
  -89.2580   32.3324   -4.1430 O   0  0  0  0  0  0  0  0  0  0  0  0
  -88.3199   32.5735   -3.1543 C   0  0  0  0  0  0  0  0  0  0  0  0
  -87.1295   33.2110   -3.4322 C   0  0  0  0  0  0  0  0  0  0  0  0
  -86.1997   33.4406   -2.4101 C   0  0  0  0  0  0  0  0  0  0  0  0
  -86.4386   33.0441   -1.1193 C   0  0  0  0  0  0  0  0  0  0  0  0
  -87.6613   32.3921   -0.8447 C   0  0  0  0  0  0  0  0  0  0  0  0
  -88.5548   32.1776   -1.8526 C   0  0  0  0  0  0  0  0  0  0  0  0
  -90.0961   31.3631   -1.5408 Cl  0  0  0  0  0  0  0  0  0  0  0  0
  -89.1319   32.6010   -5.1008 H   0  0  0  0  0  0  0  0  0  0  0  0
  -85.1534   28.6328    1.5073 N   0  0  0  0  0  0  0  0  0  0  0  0
  -84.5524   27.9677    2.0859 H   0  0  0  0  0  0  0  0  0  0  0  0
  -86.4225   28.1727    1.1265 C   0  0  0  0  0  0  0  0  0  0  0  0
  -87.1281   28.6231    0.0278 C   0  0  0  0  0  0  0  0  0  0  0  0
  -88.3716   28.1142   -0.3190 C   0  0  0  0  0  0  0  0  0  0  0  0
  -88.9238   27.1221    0.4631 C   0  0  0  0  0  0  0  0  0  0  0  0
  -90.1325   26.4153    0.3851 O   0  0  0  0  0  0  0  0  0  0  0  0
  -89.8870   25.1938    1.0811 C   0  0  0  0  0  0  0  0  0  0  0  0
  -91.0261   24.6139    1.5506 F   0  0  0  0  0  0  0  0  0  0  0  0
  -89.1103   24.3769    0.3068 F   0  0  0  0  0  0  0  0  0  0  0  0
  -89.0439   25.6741    2.1397 O   0  0  0  0  0  0  0  0  0  0  0  0
  -88.2365   26.6565    1.5675 C   0  0  0  0  0  0  0  0  0  0  0  0
  -87.0143   27.1571    1.9072 C   0  0  0  0  0  0  0  0  0  0  0  0
 10 11  1  0  0  0
 11 12  2  0  0  0
 12 13  1  0  0  0
 13 14  2  0  0  0
 14  8  1  0  0  0
  8  1  1  0  0  0
  1  2  2  0  0  0
  2  3  1  0  0  0
  3  4  2  0  0  0
  4  5  1  0  0  0
  4  6  1  0  0  0
  6 19  1  0  0  0
 19 21  1  0  0  0
 21 22  2  0  0  0
 22 23  1  0  0  0
 23 24  2  0  0  0
 24 25  1  0  0  0
 25 26  1  0  0  0
 26 27  1  0  0  0
 26 28  1  0  0  0
 26 29  1  0  0  0
 29 30  1  0  0  0
 30 31  2  0  0  0
  6  7  2  0  0  0
 14 15  1  0  0  0
 15 16  2  0  0  0
 16 17  1  0  0  0
 16 11  1  0  0  0
  7  1  1  0  0  0
 31 21  1  0  0  0
 30 24  1  0  0  0
 10 18  1  0  0  0
  8  9  1  0  0  0
 19 20  1  0  0  0
M  END
> <minimizedAffinity>
-8.72226

> <CNNscore>
0.3404906690

> <CNNaffinity>
7.0181646347

> <CNN_VS>
2.3896195889

> <CNNaffinity_variance>
0.0880771279

$$$$
[H]Oc1c([H])c([H])c(N([H])c2nc([H])c(F)c(N([H])c3c([H])c([H])c4c(c3[H])OC(F)(F)O4)n2)c([H])c1Cl


 31 34  0  0  0  0  0  0  0  0999 V2000
  -85.4373   32.5625   -0.3657 C   0  0  0  0  0  0  0  0  0  0  0  0
  -85.3363   33.3430   -1.4399 N   0  0  0  0  0  0  0  0  0  0  0  0
  -86.3488   33.6163   -2.2561 C   0  0  0  0  0  0  0  0  0  0  0  0
  -87.5905   33.0809   -2.0117 C   0  0  0  0  0  0  0  0  0  0  0  0
  -88.6436   33.3199   -2.7962 F   0  0  0  0  0  0  0  0  0  0  0  0
  -87.7541   32.2439   -0.8829 C   0  0  0  0  0  0  0  0  0  0  0  0
  -86.6745   32.0332   -0.1280 N   0  0  0  0  0  0  0  0  0  0  0  0
  -84.3678   32.2674    0.5058 N   0  0  0  0  0  0  0  0  0  0  0  0
  -83.6786   33.0432    0.7862 H   0  0  0  0  0  0  0  0  0  0  0  0
  -83.9236   27.1533    2.7274 O   0  0  0  0  0  0  0  0  0  0  0  0
  -83.9832   28.4206    2.1741 C   0  0  0  0  0  0  0  0  0  0  0  0
  -82.8473   29.1802    1.9920 C   0  0  0  0  0  0  0  0  0  0  0  0
  -82.9398   30.4596    1.4294 C   0  0  0  0  0  0  0  0  0  0  0  0
  -84.1450   30.9911    1.0480 C   0  0  0  0  0  0  0  0  0  0  0  0
  -85.3030   30.2048    1.2383 C   0  0  0  0  0  0  0  0  0  0  0  0
  -85.1934   28.9611    1.7872 C   0  0  0  0  0  0  0  0  0  0  0  0
  -86.6260   27.9509    2.0388 Cl  0  0  0  0  0  0  0  0  0  0  0  0
  -83.0692   26.7198    3.0230 H   0  0  0  0  0  0  0  0  0  0  0  0
  -89.0273   31.7069   -0.6089 N   0  0  0  0  0  0  0  0  0  0  0  0
  -89.7417   32.3788   -0.1888 H   0  0  0  0  0  0  0  0  0  0  0  0
  -89.4520   30.3895   -0.8358 C   0  0  0  0  0  0  0  0  0  0  0  0
  -89.4769   29.3929    0.1202 C   0  0  0  0  0  0  0  0  0  0  0  0
  -89.9319   28.1105   -0.1518 C   0  0  0  0  0  0  0  0  0  0  0  0
  -90.3753   27.8202   -1.4247 C   0  0  0  0  0  0  0  0  0  0  0  0
  -90.8844   26.6510   -2.0081 O   0  0  0  0  0  0  0  0  0  0  0  0
  -91.6665   27.1045   -3.1123 C   0  0  0  0  0  0  0  0  0  0  0  0
  -91.8201   26.1560   -4.0772 F   0  0  0  0  0  0  0  0  0  0  0  0
  -92.8367   27.6414   -2.6513 F   0  0  0  0  0  0  0  0  0  0  0  0
  -90.8592   28.2064   -3.5551 O   0  0  0  0  0  0  0  0  0  0  0  0
  -90.3588   28.8012   -2.3975 C   0  0  0  0  0  0  0  0  0  0  0  0
  -89.9118   30.0613   -2.1288 C   0  0  0  0  0  0  0  0  0  0  0  0
 10 11  1  0  0  0
 11 12  2  0  0  0
 12 13  1  0  0  0
 13 14  2  0  0  0
 14  8  1  0  0  0
  8  1  1  0  0  0
  1  2  2  0  0  0
  2  3  1  0  0  0
  3  4  2  0  0  0
  4  5  1  0  0  0
  4  6  1  0  0  0
  6 19  1  0  0  0
 19 21  1  0  0  0
 21 22  2  0  0  0
 22 23  1  0  0  0
 23 24  2  0  0  0
 24 25  1  0  0  0
 25 26  1  0  0  0
 26 27  1  0  0  0
 26 28  1  0  0  0
 26 29  1  0  0  0
 29 30  1  0  0  0
 30 31  2  0  0  0
  6  7  2  0  0  0
 14 15  1  0  0  0
 15 16  2  0  0  0
 16 17  1  0  0  0
 16 11  1  0  0  0
  7  1  1  0  0  0
 31 21  1  0  0  0
 30 24  1  0  0  0
 10 18  1  0  0  0
  8  9  1  0  0  0
 19 20  1  0  0  0
M  END
> <minimizedAffinity>
-9.10270

> <CNNscore>
0.3303345740

> <CNNaffinity>
6.9014587402

> <CNN_VS>
2.2797904015

> <CNNaffinity_variance>
0.0825777799

$$$$
[H]Oc1c([H])c([H])c(N([H])c2nc([H])c(F)c(N([H])c3c([H])c([H])c4c(c3[H])OC(F)(F)O4)n2)c([H])c1Cl


 31 34  0  0  0  0  0  0  0  0999 V2000
  -85.2027   29.1295    0.8799 C   0  0  0  0  0  0  0  0  0  0  0  0
  -84.0351   29.0894    1.5189 N   0  0  0  0  0  0  0  0  0  0  0  0
  -83.2152   30.1292    1.6320 C   0  0  0  0  0  0  0  0  0  0  0  0
  -83.5562   31.3357    1.0698 C   0  0  0  0  0  0  0  0  0  0  0  0
  -82.7731   32.4135    1.1509 F   0  0  0  0  0  0  0  0  0  0  0  0
  -84.7867   31.4343    0.3786 C   0  0  0  0  0  0  0  0  0  0  0  0
  -85.5361   30.3320    0.3230 N   0  0  0  0  0  0  0  0  0  0  0  0
  -86.0787   28.0307    0.7553 N   0  0  0  0  0  0  0  0  0  0  0  0
  -85.6861   27.0608    0.5091 H   0  0  0  0  0  0  0  0  0  0  0  0
  -91.5616   28.1408    1.8564 O   0  0  0  0  0  0  0  0  0  0  0  0
  -90.2134   28.1422    1.5433 C   0  0  0  0  0  0  0  0  0  0  0  0
  -89.7541   28.6418    0.3433 C   0  0  0  0  0  0  0  0  0  0  0  0
  -88.3834   28.6294    0.0551 C   0  0  0  0  0  0  0  0  0  0  0  0
  -87.4673   28.1267    0.9430 C   0  0  0  0  0  0  0  0  0  0  0  0
  -87.9478   27.6176    2.1699 C   0  0  0  0  0  0  0  0  0  0  0  0
  -89.2859   27.6384    2.4334 C   0  0  0  0  0  0  0  0  0  0  0  0
  -89.9197   27.0078    3.9620 Cl  0  0  0  0  0  0  0  0  0  0  0  0
  -92.2711   28.4954    1.2429 H   0  0  0  0  0  0  0  0  0  0  0  0
  -85.1580   32.6717   -0.1831 N   0  0  0  0  0  0  0  0  0  0  0  0
  -84.4778   33.4801   -0.0338 H   0  0  0  0  0  0  0  0  0  0  0  0
  -86.3196   32.9476   -0.9191 C   0  0  0  0  0  0  0  0  0  0  0  0
  -87.5967   32.5766   -0.5460 C   0  0  0  0  0  0  0  0  0  0  0  0
  -88.7164   32.8983   -1.2999 C   0  0  0  0  0  0  0  0  0  0  0  0
  -88.5474   33.6148   -2.4657 C   0  0  0  0  0  0  0  0  0  0  0  0
  -89.4514   34.0865   -3.4285 O   0  0  0  0  0  0  0  0  0  0  0  0
  -88.7864   35.1884   -4.0451 C   0  0  0  0  0  0  0  0  0  0  0  0
  -89.2501   35.4530   -5.2978 F   0  0  0  0  0  0  0  0  0  0  0  0
  -88.7987   36.2603   -3.1960 F   0  0  0  0  0  0  0  0  0  0  0  0
  -87.4386   34.6929   -4.0564 O   0  0  0  0  0  0  0  0  0  0  0  0
  -87.2791   33.9961   -2.8592 C   0  0  0  0  0  0  0  0  0  0  0  0
  -86.1795   33.6796   -2.1172 C   0  0  0  0  0  0  0  0  0  0  0  0
 10 11  1  0  0  0
 11 12  2  0  0  0
 12 13  1  0  0  0
 13 14  2  0  0  0
 14  8  1  0  0  0
  8  1  1  0  0  0
  1  2  2  0  0  0
  2  3  1  0  0  0
  3  4  2  0  0  0
  4  5  1  0  0  0
  4  6  1  0  0  0
  6 19  1  0  0  0
 19 21  1  0  0  0
 21 22  2  0  0  0
 22 23  1  0  0  0
 23 24  2  0  0  0
 24 25  1  0  0  0
 25 26  1  0  0  0
 26 27  1  0  0  0
 26 28  1  0  0  0
 26 29  1  0  0  0
 29 30  1  0  0  0
 30 31  2  0  0  0
  6  7  2  0  0  0
 14 15  1  0  0  0
 15 16  2  0  0  0
 16 17  1  0  0  0
 16 11  1  0  0  0
  7  1  1  0  0  0
 31 21  1  0  0  0
 30 24  1  0  0  0
 10 18  1  0  0  0
  8  9  1  0  0  0
 19 20  1  0  0  0
M  END
> <minimizedAffinity>
-8.74509

> <CNNscore>
0.3302796781

> <CNNaffinity>
6.9243597984

> <CNN_VS>
2.2869753838

> <CNNaffinity_variance>
0.1336973608

$$$$
[H]Oc1c([H])c([H])c(N([H])c2nc([H])c(F)c(N([H])c3c([H])c([H])c4c(c3[H])OC(F)(F)O4)n2)c([H])c1Cl


 31 34  0  0  0  0  0  0  0  0999 V2000
  -84.8312   30.1057    1.2426 C   0  0  0  0  0  0  0  0  0  0  0  0
  -83.5015   30.1673    1.2044 N   0  0  0  0  0  0  0  0  0  0  0  0
  -82.8204   31.1893    0.6969 C   0  0  0  0  0  0  0  0  0  0  0  0
  -83.4913   32.2665    0.1700 C   0  0  0  0  0  0  0  0  0  0  0  0
  -82.8610   33.3203   -0.3531 F   0  0  0  0  0  0  0  0  0  0  0  0
  -84.9059   32.2533    0.1848 C   0  0  0  0  0  0  0  0  0  0  0  0
  -85.4926   31.1798    0.7172 N   0  0  0  0  0  0  0  0  0  0  0  0
  -85.5617   29.0248    1.7795 N   0  0  0  0  0  0  0  0  0  0  0  0
  -85.5977   28.8818    2.8442 H   0  0  0  0  0  0  0  0  0  0  0  0
  -88.4797   25.6961   -1.6399 O   0  0  0  0  0  0  0  0  0  0  0  0
  -87.7493   26.4801   -0.7638 C   0  0  0  0  0  0  0  0  0  0  0  0
  -87.3523   26.0041    0.4677 C   0  0  0  0  0  0  0  0  0  0  0  0
  -86.6139   26.8218    1.3327 C   0  0  0  0  0  0  0  0  0  0  0  0
  -86.2677   28.1033    0.9889 C   0  0  0  0  0  0  0  0  0  0  0  0
  -86.6788   28.5815   -0.2750 C   0  0  0  0  0  0  0  0  0  0  0  0
  -87.3968   27.7709   -1.1043 C   0  0  0  0  0  0  0  0  0  0  0  0
  -87.9269   28.3408   -2.6950 Cl  0  0  0  0  0  0  0  0  0  0  0  0
  -88.7584   24.7545   -1.4369 H   0  0  0  0  0  0  0  0  0  0  0  0
  -85.6053   33.3615   -0.3321 N   0  0  0  0  0  0  0  0  0  0  0  0
  -85.2489   34.3230   -0.0373 H   0  0  0  0  0  0  0  0  0  0  0  0
  -86.7114   33.3317   -1.1941 C   0  0  0  0  0  0  0  0  0  0  0  0
  -87.9663   32.8673   -0.8515 C   0  0  0  0  0  0  0  0  0  0  0  0
  -89.0346   32.8843   -1.7369 C   0  0  0  0  0  0  0  0  0  0  0  0
  -88.8356   33.3831   -3.0068 C   0  0  0  0  0  0  0  0  0  0  0  0
  -89.6875   33.5358   -4.1102 O   0  0  0  0  0  0  0  0  0  0  0  0
  -89.0998   34.5812   -4.8837 C   0  0  0  0  0  0  0  0  0  0  0  0
  -89.4630   34.5378   -6.1953 F   0  0  0  0  0  0  0  0  0  0  0  0
  -89.3251   35.7828   -4.2706 F   0  0  0  0  0  0  0  0  0  0  0  0
  -87.7083   34.2814   -4.6934 O   0  0  0  0  0  0  0  0  0  0  0  0
  -87.5885   33.8524   -3.3721 C   0  0  0  0  0  0  0  0  0  0  0  0
  -86.5394   33.8355   -2.5008 C   0  0  0  0  0  0  0  0  0  0  0  0
 10 11  1  0  0  0
 11 12  2  0  0  0
 12 13  1  0  0  0
 13 14  2  0  0  0
 14  8  1  0  0  0
  8  1  1  0  0  0
  1  2  2  0  0  0
  2  3  1  0  0  0
  3  4  2  0  0  0
  4  5  1  0  0  0
  4  6  1  0  0  0
  6 19  1  0  0  0
 19 21  1  0  0  0
 21 22  2  0  0  0
 22 23  1  0  0  0
 23 24  2  0  0  0
 24 25  1  0  0  0
 25 26  1  0  0  0
 26 27  1  0  0  0
 26 28  1  0  0  0
 26 29  1  0  0  0
 29 30  1  0  0  0
 30 31  2  0  0  0
  6  7  2  0  0  0
 14 15  1  0  0  0
 15 16  2  0  0  0
 16 17  1  0  0  0
 16 11  1  0  0  0
  7  1  1  0  0  0
 31 21  1  0  0  0
 30 24  1  0  0  0
 10 18  1  0  0  0
  8  9  1  0  0  0
 19 20  1  0  0  0
M  END
> <minimizedAffinity>
-9.22511

> <CNNscore>
0.2968760729

> <CNNaffinity>
6.7498688698

> <CNN_VS>
2.0038745403

> <CNNaffinity_variance>
0.0777454078

$$$$
[H]Oc1c([H])c([H])c(N([H])c2nc([H])c(F)c(N([H])c3c([H])c([H])c4c(c3[H])OC(F)(F)O4)n2)c([H])c1Cl


 31 34  0  0  0  0  0  0  0  0999 V2000
  -85.7730   32.3211   -0.2991 C   0  0  0  0  0  0  0  0  0  0  0  0
  -85.7706   33.4361   -1.0272 N   0  0  0  0  0  0  0  0  0  0  0  0
  -86.4905   33.6023   -2.1319 C   0  0  0  0  0  0  0  0  0  0  0  0
  -87.2983   32.5866   -2.5833 C   0  0  0  0  0  0  0  0  0  0  0  0
  -88.0430   32.6962   -3.6856 F   0  0  0  0  0  0  0  0  0  0  0  0
  -87.3389   31.3791   -1.8474 C   0  0  0  0  0  0  0  0  0  0  0  0
  -86.5783   31.3148   -0.7532 N   0  0  0  0  0  0  0  0  0  0  0  0
  -85.0121   32.1365    0.8744 N   0  0  0  0  0  0  0  0  0  0  0  0
  -84.7535   32.9851    1.4814 H   0  0  0  0  0  0  0  0  0  0  0  0
  -83.6576   27.0297    2.7110 O   0  0  0  0  0  0  0  0  0  0  0  0
  -83.9437   28.3030    2.2498 C   0  0  0  0  0  0  0  0  0  0  0  0
  -82.9482   29.2343    2.0446 C   0  0  0  0  0  0  0  0  0  0  0  0
  -83.2693   30.5151    1.5771 C   0  0  0  0  0  0  0  0  0  0  0  0
  -84.5645   30.8796    1.3132 C   0  0  0  0  0  0  0  0  0  0  0  0
  -85.5772   29.9181    1.5262 C   0  0  0  0  0  0  0  0  0  0  0  0
  -85.2457   28.6759    1.9813 C   0  0  0  0  0  0  0  0  0  0  0  0
  -86.4918   27.4485    2.2583 Cl  0  0  0  0  0  0  0  0  0  0  0  0
  -82.7290   26.7139    2.9193 H   0  0  0  0  0  0  0  0  0  0  0  0
  -88.1802   30.3383   -2.2874 N   0  0  0  0  0  0  0  0  0  0  0  0
  -88.7404   30.5287   -3.1753 H   0  0  0  0  0  0  0  0  0  0  0  0
  -88.3517   29.0830   -1.6858 C   0  0  0  0  0  0  0  0  0  0  0  0
  -87.4265   28.0580   -1.7213 C   0  0  0  0  0  0  0  0  0  0  0  0
  -87.6362   26.8424   -1.0859 C   0  0  0  0  0  0  0  0  0  0  0  0
  -88.8130   26.6503   -0.3935 C   0  0  0  0  0  0  0  0  0  0  0  0
  -89.3169   25.5650    0.3378 O   0  0  0  0  0  0  0  0  0  0  0  0
  -90.2520   26.1411    1.2490 C   0  0  0  0  0  0  0  0  0  0  0  0
  -91.1912   25.2525    1.6762 F   0  0  0  0  0  0  0  0  0  0  0  0
  -89.5761   26.7802    2.2515 F   0  0  0  0  0  0  0  0  0  0  0  0
  -90.8125   27.1682    0.4164 O   0  0  0  0  0  0  0  0  0  0  0  0
  -89.7535   27.6613   -0.3450 C   0  0  0  0  0  0  0  0  0  0  0  0
  -89.5461   28.8557   -0.9696 C   0  0  0  0  0  0  0  0  0  0  0  0
 10 11  1  0  0  0
 11 12  2  0  0  0
 12 13  1  0  0  0
 13 14  2  0  0  0
 14  8  1  0  0  0
  8  1  1  0  0  0
  1  2  2  0  0  0
  2  3  1  0  0  0
  3  4  2  0  0  0
  4  5  1  0  0  0
  4  6  1  0  0  0
  6 19  1  0  0  0
 19 21  1  0  0  0
 21 22  2  0  0  0
 22 23  1  0  0  0
 23 24  2  0  0  0
 24 25  1  0  0  0
 25 26  1  0  0  0
 26 27  1  0  0  0
 26 28  1  0  0  0
 26 29  1  0  0  0
 29 30  1  0  0  0
 30 31  2  0  0  0
  6  7  2  0  0  0
 14 15  1  0  0  0
 15 16  2  0  0  0
 16 17  1  0  0  0
 16 11  1  0  0  0
  7  1  1  0  0  0
 31 21  1  0  0  0
 30 24  1  0  0  0
 10 18  1  0  0  0
  8  9  1  0  0  0
 19 20  1  0  0  0
M  END
> <minimizedAffinity>
-9.09318

> <CNNscore>
0.2885910869

> <CNNaffinity>
7.2054305077

> <CNN_VS>
2.0794229507

> <CNNaffinity_variance>
0.1304411888

$$$$
[H]Oc1c([H])c([H])c(N([H])c2nc([H])c(F)c(N([H])c3c([H])c([H])c4c(c3[H])OC(F)(F)O4)n2)c([H])c1Cl


 31 34  0  0  0  0  0  0  0  0999 V2000
  -85.4841   27.5352    2.0306 C   0  0  0  0  0  0  0  0  0  0  0  0
  -84.2184   27.3839    2.4157 N   0  0  0  0  0  0  0  0  0  0  0  0
  -83.3108   28.3539    2.3792 C   0  0  0  0  0  0  0  0  0  0  0  0
  -83.6594   29.6024    1.9232 C   0  0  0  0  0  0  0  0  0  0  0  0
  -82.7911   30.6143    1.8637 F   0  0  0  0  0  0  0  0  0  0  0  0
  -84.9923   29.8186    1.5011 C   0  0  0  0  0  0  0  0  0  0  0  0
  -85.8246   28.7788    1.5782 N   0  0  0  0  0  0  0  0  0  0  0  0
  -86.4536   26.5109    2.0661 N   0  0  0  0  0  0  0  0  0  0  0  0
  -86.2052   25.5559    2.4922 H   0  0  0  0  0  0  0  0  0  0  0  0
  -91.7718   27.2676    0.5066 O   0  0  0  0  0  0  0  0  0  0  0  0
  -90.4456   27.0634    0.8461 C   0  0  0  0  0  0  0  0  0  0  0  0
  -89.5842   26.3883    0.0078 C   0  0  0  0  0  0  0  0  0  0  0  0
  -88.2472   26.1973    0.3794 C   0  0  0  0  0  0  0  0  0  0  0  0
  -87.7588   26.6674    1.5713 C   0  0  0  0  0  0  0  0  0  0  0  0
  -88.6491   27.3582    2.4230 C   0  0  0  0  0  0  0  0  0  0  0  0
  -89.9474   27.5351    2.0444 C   0  0  0  0  0  0  0  0  0  0  0  0
  -91.0882   28.3965    3.0896 Cl  0  0  0  0  0  0  0  0  0  0  0  0
  -92.1781   26.9441   -0.3511 H   0  0  0  0  0  0  0  0  0  0  0  0
  -85.3678   31.1002    1.0524 N   0  0  0  0  0  0  0  0  0  0  0  0
  -85.0529   31.9217    1.6559 H   0  0  0  0  0  0  0  0  0  0  0  0
  -86.1033   31.4060   -0.1020 C   0  0  0  0  0  0  0  0  0  0  0  0
  -87.1243   30.6304   -0.6156 C   0  0  0  0  0  0  0  0  0  0  0  0
  -87.8382   30.9934   -1.7488 C   0  0  0  0  0  0  0  0  0  0  0  0
  -87.5155   32.1725   -2.3865 C   0  0  0  0  0  0  0  0  0  0  0  0
  -88.0324   32.8072   -3.5251 O   0  0  0  0  0  0  0  0  0  0  0  0
  -87.7094   34.1866   -3.3528 C   0  0  0  0  0  0  0  0  0  0  0  0
  -87.6634   34.8706   -4.5293 F   0  0  0  0  0  0  0  0  0  0  0  0
  -88.5350   34.7328   -2.4093 F   0  0  0  0  0  0  0  0  0  0  0  0
  -86.4156   34.0662   -2.7415 O   0  0  0  0  0  0  0  0  0  0  0  0
  -86.4972   32.9641   -1.8912 C   0  0  0  0  0  0  0  0  0  0  0  0
  -85.7966   32.6065   -0.7772 C   0  0  0  0  0  0  0  0  0  0  0  0
 10 11  1  0  0  0
 11 12  2  0  0  0
 12 13  1  0  0  0
 13 14  2  0  0  0
 14  8  1  0  0  0
  8  1  1  0  0  0
  1  2  2  0  0  0
  2  3  1  0  0  0
  3  4  2  0  0  0
  4  5  1  0  0  0
  4  6  1  0  0  0
  6 19  1  0  0  0
 19 21  1  0  0  0
 21 22  2  0  0  0
 22 23  1  0  0  0
 23 24  2  0  0  0
 24 25  1  0  0  0
 25 26  1  0  0  0
 26 27  1  0  0  0
 26 28  1  0  0  0
 26 29  1  0  0  0
 29 30  1  0  0  0
 30 31  2  0  0  0
  6  7  2  0  0  0
 14 15  1  0  0  0
 15 16  2  0  0  0
 16 17  1  0  0  0
 16 11  1  0  0  0
  7  1  1  0  0  0
 31 21  1  0  0  0
 30 24  1  0  0  0
 10 18  1  0  0  0
  8  9  1  0  0  0
 19 20  1  0  0  0
M  END
> <minimizedAffinity>
-9.26153

> <CNNscore>
0.2825370133

> <CNNaffinity>
6.8682532310

> <CNN_VS>
1.9405357838

> <CNNaffinity_variance>
0.2538575530

$$$$
[H]Oc1c([H])nc([H])c(-c2c([H])nc3c(c2[H])c(-c2c([H])c([H])c(O[H])c([H])c2[H])c([H])n3[H])c1[H]


 26 29  0  0  0  0  0  0  0  0999 V2000
  -83.6988   31.3635    0.4535 C   0  0  0  0  0  0  0  0  0  0  0  0
  -82.7032   32.3264    0.2416 C   0  0  0  0  0  0  0  0  0  0  0  0
  -83.2135   33.3140   -0.5051 N   0  0  0  0  0  0  0  0  0  0  0  0
  -84.5017   33.0347   -0.7888 C   0  0  0  0  0  0  0  0  0  0  0  0
  -85.4677   33.6699   -1.4889 N   0  0  0  0  0  0  0  0  0  0  0  0
  -86.7059   33.1890   -1.6382 C   0  0  0  0  0  0  0  0  0  0  0  0
  -87.0191   31.9765   -1.0459 C   0  0  0  0  0  0  0  0  0  0  0  0
  -86.0856   31.2784   -0.3208 C   0  0  0  0  0  0  0  0  0  0  0  0
  -84.8226   31.8186   -0.1975 C   0  0  0  0  0  0  0  0  0  0  0  0
  -82.6942   34.1776   -0.8245 H   0  0  0  0  0  0  0  0  0  0  0  0
  -83.4232   26.5537    3.3836 O   0  0  0  0  0  0  0  0  0  0  0  0
  -83.4441   27.7370    2.6640 C   0  0  0  0  0  0  0  0  0  0  0  0
  -84.6820   28.2487    2.2836 C   0  0  0  0  0  0  0  0  0  0  0  0
  -84.7054   29.4303    1.5648 C   0  0  0  0  0  0  0  0  0  0  0  0
  -83.5693   30.1241    1.2076 C   0  0  0  0  0  0  0  0  0  0  0  0
  -82.3574   29.5942    1.5975 C   0  0  0  0  0  0  0  0  0  0  0  0
  -82.3020   28.4200    2.3136 C   0  0  0  0  0  0  0  0  0  0  0  0
  -82.5035   26.1972    3.6517 H   0  0  0  0  0  0  0  0  0  0  0  0
  -88.3436   31.3991   -1.1700 C   0  0  0  0  0  0  0  0  0  0  0  0
  -89.2561   31.7834   -2.1243 C   0  0  0  0  0  0  0  0  0  0  0  0
  -90.4893   31.2054   -2.1940 N   0  0  0  0  0  0  0  0  0  0  0  0
  -90.8907   30.2374   -1.3494 C   0  0  0  0  0  0  0  0  0  0  0  0
  -90.0014   29.8277   -0.3802 C   0  0  0  0  0  0  0  0  0  0  0  0
  -90.3637   28.8243    0.5267 O   0  0  0  0  0  0  0  0  0  0  0  0
  -88.7360   30.4105   -0.2973 C   0  0  0  0  0  0  0  0  0  0  0  0
  -90.1684   27.8537    0.2870 H   0  0  0  0  0  0  0  0  0  0  0  0
 11 12  1  0  0  0
 12 13  2  0  0  0
 13 14  1  0  0  0
 14 15  2  0  0  0
 15 16  1  0  0  0
 16 17  2  0  0  0
 15  1  1  0  0  0
  1  2  2  0  0  0
  2  3  1  0  0  0
  3  4  1  0  0  0
  4  5  2  0  0  0
  5  6  1  0  0  0
  6  7  2  0  0  0
  7  8  1  0  0  0
  8  9  2  0  0  0
  7 19  1  0  0  0
 19 20  2  0  0  0
 20 21  1  0  0  0
 21 22  2  0  0  0
 22 23  1  0  0  0
 23 24  1  0  0  0
 23 25  2  0  0  0
 17 12  1  0  0  0
  9  1  1  0  0  0
 25 19  1  0  0  0
  9  4  1  0  0  0
 11 18  1  0  0  0
  3 10  1  0  0  0
 24 26  1  0  0  0
M  END
> <minimizedAffinity>
-9.56720

> <CNNscore>
0.8268475533

> <CNNaffinity>
6.8323755264

> <CNN_VS>
5.6493330002

> <CNNaffinity_variance>
0.1255131066

$$$$
[H]Oc1c([H])nc([H])c(-c2c([H])nc3c(c2[H])c(-c2c([H])c([H])c(O[H])c([H])c2[H])c([H])n3[H])c1[H]


 26 29  0  0  0  0  0  0  0  0999 V2000
  -88.6114   35.0158   -3.4091 C   0  0  0  0  0  0  0  0  0  0  0  0
  -89.9271   34.6620   -3.7358 C   0  0  0  0  0  0  0  0  0  0  0  0
  -90.2206   33.5008   -3.1366 N   0  0  0  0  0  0  0  0  0  0  0  0
  -89.1497   33.0829   -2.4320 C   0  0  0  0  0  0  0  0  0  0  0  0
  -88.8987   32.0043   -1.6571 N   0  0  0  0  0  0  0  0  0  0  0  0
  -87.7307   31.7957   -1.0414 C   0  0  0  0  0  0  0  0  0  0  0  0
  -86.7225   32.7318   -1.2036 C   0  0  0  0  0  0  0  0  0  0  0  0
  -86.9100   33.8504   -1.9770 C   0  0  0  0  0  0  0  0  0  0  0  0
  -88.1337   34.0179   -2.5907 C   0  0  0  0  0  0  0  0  0  0  0  0
  -91.1429   32.9886   -3.2018 H   0  0  0  0  0  0  0  0  0  0  0  0
  -85.9249   39.7233   -4.9641 O   0  0  0  0  0  0  0  0  0  0  0  0
  -86.5631   38.5441   -4.6167 C   0  0  0  0  0  0  0  0  0  0  0  0
  -87.4220   38.5642   -3.5210 C   0  0  0  0  0  0  0  0  0  0  0  0
  -88.0604   37.3877   -3.1721 C   0  0  0  0  0  0  0  0  0  0  0  0
  -87.8896   36.2010   -3.8520 C   0  0  0  0  0  0  0  0  0  0  0  0
  -87.0334   36.2104   -4.9328 C   0  0  0  0  0  0  0  0  0  0  0  0
  -86.3837   37.3656   -5.3043 C   0  0  0  0  0  0  0  0  0  0  0  0
  -85.2992   39.6845   -5.7715 H   0  0  0  0  0  0  0  0  0  0  0  0
  -85.4318   32.5651   -0.5637 C   0  0  0  0  0  0  0  0  0  0  0  0
  -84.2971   33.2391   -0.9498 C   0  0  0  0  0  0  0  0  0  0  0  0
  -83.1083   33.0421   -0.3113 N   0  0  0  0  0  0  0  0  0  0  0  0
  -82.9664   32.1904    0.7212 C   0  0  0  0  0  0  0  0  0  0  0  0
  -84.0834   31.4980    1.1347 C   0  0  0  0  0  0  0  0  0  0  0  0
  -83.9962   30.5980    2.2037 O   0  0  0  0  0  0  0  0  0  0  0  0
  -85.3065   31.6898    0.4903 C   0  0  0  0  0  0  0  0  0  0  0  0
  -84.1632   30.9416    3.1480 H   0  0  0  0  0  0  0  0  0  0  0  0
 11 12  1  0  0  0
 12 13  2  0  0  0
 13 14  1  0  0  0
 14 15  2  0  0  0
 15 16  1  0  0  0
 16 17  2  0  0  0
 15  1  1  0  0  0
  1  2  2  0  0  0
  2  3  1  0  0  0
  3  4  1  0  0  0
  4  5  2  0  0  0
  5  6  1  0  0  0
  6  7  2  0  0  0
  7  8  1  0  0  0
  8  9  2  0  0  0
  7 19  1  0  0  0
 19 20  2  0  0  0
 20 21  1  0  0  0
 21 22  2  0  0  0
 22 23  1  0  0  0
 23 24  1  0  0  0
 23 25  2  0  0  0
 17 12  1  0  0  0
  9  1  1  0  0  0
 25 19  1  0  0  0
  9  4  1  0  0  0
 11 18  1  0  0  0
  3 10  1  0  0  0
 24 26  1  0  0  0
M  END
> <minimizedAffinity>
-8.29285

> <CNNscore>
0.7227472067

> <CNNaffinity>
6.1949505806

> <CNN_VS>
4.4773831367

> <CNNaffinity_variance>
0.0402452722

$$$$
[H]Oc1c([H])nc([H])c(-c2c([H])nc3c(c2[H])c(-c2c([H])c([H])c(O[H])c([H])c2[H])c([H])n3[H])c1[H]


 26 29  0  0  0  0  0  0  0  0999 V2000
  -85.1015   32.8670   -0.7580 C   0  0  0  0  0  0  0  0  0  0  0  0
  -83.9163   33.6141   -0.7549 C   0  0  0  0  0  0  0  0  0  0  0  0
  -82.9906   32.9474   -0.0535 N   0  0  0  0  0  0  0  0  0  0  0  0
  -83.5238   31.7955    0.4011 C   0  0  0  0  0  0  0  0  0  0  0  0
  -83.0494   30.7697    1.1425 N   0  0  0  0  0  0  0  0  0  0  0  0
  -83.7819   29.7031    1.4779 C   0  0  0  0  0  0  0  0  0  0  0  0
  -85.0963   29.6423    1.0448 C   0  0  0  0  0  0  0  0  0  0  0  0
  -85.6420   30.6496    0.2885 C   0  0  0  0  0  0  0  0  0  0  0  0
  -84.8434   31.7281   -0.0297 C   0  0  0  0  0  0  0  0  0  0  0  0
  -81.9983   33.2680    0.1198 H   0  0  0  0  0  0  0  0  0  0  0  0
  -90.0790   34.1320   -3.0860 O   0  0  0  0  0  0  0  0  0  0  0  0
  -88.8353   33.8461   -2.5477 C   0  0  0  0  0  0  0  0  0  0  0  0
  -88.7863   33.0772   -1.3879 C   0  0  0  0  0  0  0  0  0  0  0  0
  -87.5452   32.7905   -0.8483 C   0  0  0  0  0  0  0  0  0  0  0  0
  -86.3592   33.2261   -1.3990 C   0  0  0  0  0  0  0  0  0  0  0  0
  -86.4378   33.9857   -2.5472 C   0  0  0  0  0  0  0  0  0  0  0  0
  -87.6583   34.2875   -3.1077 C   0  0  0  0  0  0  0  0  0  0  0  0
  -90.0904   34.6979   -3.9371 H   0  0  0  0  0  0  0  0  0  0  0  0
  -85.9450   28.5135    1.3745 C   0  0  0  0  0  0  0  0  0  0  0  0
  -85.4884   27.3699    1.9865 C   0  0  0  0  0  0  0  0  0  0  0  0
  -86.3328   26.3380    2.2727 N   0  0  0  0  0  0  0  0  0  0  0  0
  -87.6464   26.3672    1.9811 C   0  0  0  0  0  0  0  0  0  0  0  0
  -88.1383   27.4982    1.3673 C   0  0  0  0  0  0  0  0  0  0  0  0
  -89.4968   27.5853    1.0398 O   0  0  0  0  0  0  0  0  0  0  0  0
  -87.2855   28.5619    1.0686 C   0  0  0  0  0  0  0  0  0  0  0  0
  -90.1415   27.9764    1.7247 H   0  0  0  0  0  0  0  0  0  0  0  0
 11 12  1  0  0  0
 12 13  2  0  0  0
 13 14  1  0  0  0
 14 15  2  0  0  0
 15 16  1  0  0  0
 16 17  2  0  0  0
 15  1  1  0  0  0
  1  2  2  0  0  0
  2  3  1  0  0  0
  3  4  1  0  0  0
  4  5  2  0  0  0
  5  6  1  0  0  0
  6  7  2  0  0  0
  7  8  1  0  0  0
  8  9  2  0  0  0
  7 19  1  0  0  0
 19 20  2  0  0  0
 20 21  1  0  0  0
 21 22  2  0  0  0
 22 23  1  0  0  0
 23 24  1  0  0  0
 23 25  2  0  0  0
 17 12  1  0  0  0
  9  1  1  0  0  0
 25 19  1  0  0  0
  9  4  1  0  0  0
 11 18  1  0  0  0
  3 10  1  0  0  0
 24 26  1  0  0  0
M  END
> <minimizedAffinity>
-9.30188

> <CNNscore>
0.6347059608

> <CNNaffinity>
6.4927954674

> <CNN_VS>
4.1210160255

> <CNNaffinity_variance>
0.0370282754

$$$$
[H]Oc1c([H])nc([H])c(-c2c([H])nc3c(c2[H])c(-c2c([H])c([H])c(O[H])c([H])c2[H])c([H])n3[H])c1[H]


 26 29  0  0  0  0  0  0  0  0999 V2000
  -84.8692   31.4782    0.3574 C   0  0  0  0  0  0  0  0  0  0  0  0
  -84.0606   32.5898    0.0862 C   0  0  0  0  0  0  0  0  0  0  0  0
  -84.7658   33.4664   -0.6402 N   0  0  0  0  0  0  0  0  0  0  0  0
  -86.0019   32.9719   -0.8537 C   0  0  0  0  0  0  0  0  0  0  0  0
  -87.0946   33.4259   -1.5068 N   0  0  0  0  0  0  0  0  0  0  0  0
  -88.2410   32.7432   -1.5872 C   0  0  0  0  0  0  0  0  0  0  0  0
  -88.3168   31.5053   -0.9699 C   0  0  0  0  0  0  0  0  0  0  0  0
  -87.2443   30.9843   -0.2896 C   0  0  0  0  0  0  0  0  0  0  0  0
  -86.0847   31.7291   -0.2370 C   0  0  0  0  0  0  0  0  0  0  0  0
  -84.4149   34.3990   -0.9930 H   0  0  0  0  0  0  0  0  0  0  0  0
  -83.2088   26.9354    3.2559 O   0  0  0  0  0  0  0  0  0  0  0  0
  -83.6610   28.0372    2.5489 C   0  0  0  0  0  0  0  0  0  0  0  0
  -82.7175   28.9571    2.0989 C   0  0  0  0  0  0  0  0  0  0  0  0
  -83.1668   30.0584    1.3927 C   0  0  0  0  0  0  0  0  0  0  0  0
  -84.4965   30.2901    1.1132 C   0  0  0  0  0  0  0  0  0  0  0  0
  -85.4085   29.3628    1.5710 C   0  0  0  0  0  0  0  0  0  0  0  0
  -84.9919   28.2568    2.2766 C   0  0  0  0  0  0  0  0  0  0  0  0
  -83.9192   26.2739    3.5763 H   0  0  0  0  0  0  0  0  0  0  0  0
  -89.5307   30.7135   -1.0198 C   0  0  0  0  0  0  0  0  0  0  0  0
  -90.3332   30.6182   -2.1324 C   0  0  0  0  0  0  0  0  0  0  0  0
  -91.4654   29.8581   -2.1222 N   0  0  0  0  0  0  0  0  0  0  0  0
  -91.8678   29.1620   -1.0428 C   0  0  0  0  0  0  0  0  0  0  0  0
  -91.0873   29.2347    0.0901 C   0  0  0  0  0  0  0  0  0  0  0  0
  -91.4561   28.5320    1.2436 O   0  0  0  0  0  0  0  0  0  0  0  0
  -89.9259   30.0088    0.0938 C   0  0  0  0  0  0  0  0  0  0  0  0
  -91.1138   27.5807    1.3680 H   0  0  0  0  0  0  0  0  0  0  0  0
 11 12  1  0  0  0
 12 13  2  0  0  0
 13 14  1  0  0  0
 14 15  2  0  0  0
 15 16  1  0  0  0
 16 17  2  0  0  0
 15  1  1  0  0  0
  1  2  2  0  0  0
  2  3  1  0  0  0
  3  4  1  0  0  0
  4  5  2  0  0  0
  5  6  1  0  0  0
  6  7  2  0  0  0
  7  8  1  0  0  0
  8  9  2  0  0  0
  7 19  1  0  0  0
 19 20  2  0  0  0
 20 21  1  0  0  0
 21 22  2  0  0  0
 22 23  1  0  0  0
 23 24  1  0  0  0
 23 25  2  0  0  0
 17 12  1  0  0  0
  9  1  1  0  0  0
 25 19  1  0  0  0
  9  4  1  0  0  0
 11 18  1  0  0  0
  3 10  1  0  0  0
 24 26  1  0  0  0
M  END
> <minimizedAffinity>
-10.38009

> <CNNscore>
0.6062636375

> <CNNaffinity>
6.5526976585

> <CNN_VS>
3.9726622105

> <CNNaffinity_variance>
0.1878418624

$$$$
[H]Oc1c([H])nc([H])c(-c2c([H])nc3c(c2[H])c(-c2c([H])c([H])c(O[H])c([H])c2[H])c([H])n3[H])c1[H]


 26 29  0  0  0  0  0  0  0  0999 V2000
  -84.3896   31.5905    0.4471 C   0  0  0  0  0  0  0  0  0  0  0  0
  -83.5514   32.7112    0.3803 C   0  0  0  0  0  0  0  0  0  0  0  0
  -84.1087   33.6159   -0.4347 N   0  0  0  0  0  0  0  0  0  0  0  0
  -85.2767   33.1310   -0.9022 C   0  0  0  0  0  0  0  0  0  0  0  0
  -86.2255   33.6109   -1.7367 N   0  0  0  0  0  0  0  0  0  0  0  0
  -87.3300   32.9326   -2.0635 C   0  0  0  0  0  0  0  0  0  0  0  0
  -87.5154   31.6717   -1.5205 C   0  0  0  0  0  0  0  0  0  0  0  0
  -86.5913   31.1239   -0.6659 C   0  0  0  0  0  0  0  0  0  0  0  0
  -85.4689   31.8653   -0.3614 C   0  0  0  0  0  0  0  0  0  0  0  0
  -83.7026   34.5613   -0.6770 H   0  0  0  0  0  0  0  0  0  0  0  0
  -83.2872   26.9002    3.3765 O   0  0  0  0  0  0  0  0  0  0  0  0
  -83.6036   28.0457    2.6650 C   0  0  0  0  0  0  0  0  0  0  0  0
  -82.5572   28.7932    2.1311 C   0  0  0  0  0  0  0  0  0  0  0  0
  -82.8708   29.9377    1.4202 C   0  0  0  0  0  0  0  0  0  0  0  0
  -84.1621   30.3736    1.2147 C   0  0  0  0  0  0  0  0  0  0  0  0
  -85.1782   29.6139    1.7548 C   0  0  0  0  0  0  0  0  0  0  0  0
  -84.8976   28.4701    2.4671 C   0  0  0  0  0  0  0  0  0  0  0  0
  -84.0713   26.3678    3.7592 H   0  0  0  0  0  0  0  0  0  0  0  0
  -88.6913   30.8833   -1.8348 C   0  0  0  0  0  0  0  0  0  0  0  0
  -89.9785   31.3483   -1.7014 C   0  0  0  0  0  0  0  0  0  0  0  0
  -91.0482   30.5614   -2.0117 N   0  0  0  0  0  0  0  0  0  0  0  0
  -90.9201   29.2992   -2.4612 C   0  0  0  0  0  0  0  0  0  0  0  0
  -89.6441   28.8006   -2.6069 C   0  0  0  0  0  0  0  0  0  0  0  0
  -89.4491   27.4939   -3.0703 O   0  0  0  0  0  0  0  0  0  0  0  0
  -88.5402   29.5949   -2.2931 C   0  0  0  0  0  0  0  0  0  0  0  0
  -89.3587   27.3383   -4.0730 H   0  0  0  0  0  0  0  0  0  0  0  0
 11 12  1  0  0  0
 12 13  2  0  0  0
 13 14  1  0  0  0
 14 15  2  0  0  0
 15 16  1  0  0  0
 16 17  2  0  0  0
 15  1  1  0  0  0
  1  2  2  0  0  0
  2  3  1  0  0  0
  3  4  1  0  0  0
  4  5  2  0  0  0
  5  6  1  0  0  0
  6  7  2  0  0  0
  7  8  1  0  0  0
  8  9  2  0  0  0
  7 19  1  0  0  0
 19 20  2  0  0  0
 20 21  1  0  0  0
 21 22  2  0  0  0
 22 23  1  0  0  0
 23 24  1  0  0  0
 23 25  2  0  0  0
 17 12  1  0  0  0
  9  1  1  0  0  0
 25 19  1  0  0  0
  9  4  1  0  0  0
 11 18  1  0  0  0
  3 10  1  0  0  0
 24 26  1  0  0  0
M  END
> <minimizedAffinity>
-10.10837

> <CNNscore>
0.5795089006

> <CNNaffinity>
6.5935339928

> <CNN_VS>
3.8210115433

> <CNNaffinity_variance>
0.1564200670

$$$$
[H]Oc1c([H])nc([H])c(-c2c([H])nc3c(c2[H])c(-c2c([H])c([H])c(O[H])c([H])c2[H])c([H])n3[H])c1[H]


 26 29  0  0  0  0  0  0  0  0999 V2000
  -88.8812   31.3564   -0.9996 C   0  0  0  0  0  0  0  0  0  0  0  0
  -89.2535   32.5623   -1.6081 C   0  0  0  0  0  0  0  0  0  0  0  0
  -88.2122   33.4034   -1.5665 N   0  0  0  0  0  0  0  0  0  0  0  0
  -87.1755   32.7951   -0.9556 C   0  0  0  0  0  0  0  0  0  0  0  0
  -85.9132   33.1707   -0.6521 N   0  0  0  0  0  0  0  0  0  0  0  0
  -85.0388   32.3763   -0.0267 C   0  0  0  0  0  0  0  0  0  0  0  0
  -85.4440   31.1006    0.3304 C   0  0  0  0  0  0  0  0  0  0  0  0
  -86.7122   30.6546    0.0524 C   0  0  0  0  0  0  0  0  0  0  0  0
  -87.5756   31.5141   -0.5942 C   0  0  0  0  0  0  0  0  0  0  0  0
  -88.1990   34.3885   -1.9497 H   0  0  0  0  0  0  0  0  0  0  0  0
  -92.1281   26.8336   -0.1070 O   0  0  0  0  0  0  0  0  0  0  0  0
  -91.3238   27.9300   -0.3702 C   0  0  0  0  0  0  0  0  0  0  0  0
  -91.1341   28.8608    0.6479 C   0  0  0  0  0  0  0  0  0  0  0  0
  -90.3313   29.9567    0.3873 C   0  0  0  0  0  0  0  0  0  0  0  0
  -89.7120   30.1728   -0.8249 C   0  0  0  0  0  0  0  0  0  0  0  0
  -89.9174   29.2350   -1.8147 C   0  0  0  0  0  0  0  0  0  0  0  0
  -90.7111   28.1340   -1.5854 C   0  0  0  0  0  0  0  0  0  0  0  0
  -92.2530   26.1640   -0.8691 H   0  0  0  0  0  0  0  0  0  0  0  0
  -84.5447   30.1892    1.0114 C   0  0  0  0  0  0  0  0  0  0  0  0
  -83.2226   30.4701    1.2642 C   0  0  0  0  0  0  0  0  0  0  0  0
  -82.4220   29.5739    1.9090 N   0  0  0  0  0  0  0  0  0  0  0  0
  -82.8625   28.3753    2.3341 C   0  0  0  0  0  0  0  0  0  0  0  0
  -84.1827   28.0605    2.0973 C   0  0  0  0  0  0  0  0  0  0  0  0
  -84.6971   26.8276    2.5166 O   0  0  0  0  0  0  0  0  0  0  0  0
  -85.0134   28.9683    1.4386 C   0  0  0  0  0  0  0  0  0  0  0  0
  -85.1043   26.7580    3.4477 H   0  0  0  0  0  0  0  0  0  0  0  0
 11 12  1  0  0  0
 12 13  2  0  0  0
 13 14  1  0  0  0
 14 15  2  0  0  0
 15 16  1  0  0  0
 16 17  2  0  0  0
 15  1  1  0  0  0
  1  2  2  0  0  0
  2  3  1  0  0  0
  3  4  1  0  0  0
  4  5  2  0  0  0
  5  6  1  0  0  0
  6  7  2  0  0  0
  7  8  1  0  0  0
  8  9  2  0  0  0
  7 19  1  0  0  0
 19 20  2  0  0  0
 20 21  1  0  0  0
 21 22  2  0  0  0
 22 23  1  0  0  0
 23 24  1  0  0  0
 23 25  2  0  0  0
 17 12  1  0  0  0
  9  1  1  0  0  0
 25 19  1  0  0  0
  9  4  1  0  0  0
 11 18  1  0  0  0
  3 10  1  0  0  0
 24 26  1  0  0  0
M  END
> <minimizedAffinity>
-8.92945

> <CNNscore>
0.4166394174

> <CNNaffinity>
6.3292579651

> <CNN_VS>
2.6370184422

> <CNNaffinity_variance>
0.1231672540

$$$$
[H]Oc1c([H])nc([H])c(-c2c([H])nc3c(c2[H])c(-c2c([H])c([H])c(O[H])c([H])c2[H])c([H])n3[H])c1[H]


 26 29  0  0  0  0  0  0  0  0999 V2000
  -88.3476   27.4498    0.8130 C   0  0  0  0  0  0  0  0  0  0  0  0
  -88.4326   26.2430    1.5198 C   0  0  0  0  0  0  0  0  0  0  0  0
  -87.2747   26.0385    2.1606 N   0  0  0  0  0  0  0  0  0  0  0  0
  -86.4376   27.0631    1.9008 C   0  0  0  0  0  0  0  0  0  0  0  0
  -85.1748   27.3624    2.2783 N   0  0  0  0  0  0  0  0  0  0  0  0
  -84.5305   28.4656    1.8851 C   0  0  0  0  0  0  0  0  0  0  0  0
  -85.1885   29.3509    1.0469 C   0  0  0  0  0  0  0  0  0  0  0  0
  -86.4721   29.1085    0.6251 C   0  0  0  0  0  0  0  0  0  0  0  0
  -87.0916   27.9554    1.0596 C   0  0  0  0  0  0  0  0  0  0  0  0
  -87.0471   25.2082    2.7739 H   0  0  0  0  0  0  0  0  0  0  0  0
  -92.2186   29.7209   -2.6005 O   0  0  0  0  0  0  0  0  0  0  0  0
  -91.2944   29.1747   -1.7254 C   0  0  0  0  0  0  0  0  0  0  0  0
  -90.1580   28.5772   -2.2643 C   0  0  0  0  0  0  0  0  0  0  0  0
  -89.2336   28.0309   -1.3922 C   0  0  0  0  0  0  0  0  0  0  0  0
  -89.3804   28.0482   -0.0218 C   0  0  0  0  0  0  0  0  0  0  0  0
  -90.5152   28.6463    0.4839 C   0  0  0  0  0  0  0  0  0  0  0  0
  -91.4531   29.1986   -0.3587 C   0  0  0  0  0  0  0  0  0  0  0  0
  -93.0448   30.1539   -2.1824 H   0  0  0  0  0  0  0  0  0  0  0  0
  -84.5461   30.5656    0.5833 C   0  0  0  0  0  0  0  0  0  0  0  0
  -83.1857   30.7647    0.6061 C   0  0  0  0  0  0  0  0  0  0  0  0
  -82.6359   31.9291    0.1571 N   0  0  0  0  0  0  0  0  0  0  0  0
  -83.3730   32.9445   -0.3298 C   0  0  0  0  0  0  0  0  0  0  0  0
  -84.7402   32.7792   -0.3674 C   0  0  0  0  0  0  0  0  0  0  0  0
  -85.5581   33.8017   -0.8633 O   0  0  0  0  0  0  0  0  0  0  0  0
  -85.3165   31.5927    0.0888 C   0  0  0  0  0  0  0  0  0  0  0  0
  -85.7801   33.8125   -1.8575 H   0  0  0  0  0  0  0  0  0  0  0  0
 11 12  1  0  0  0
 12 13  2  0  0  0
 13 14  1  0  0  0
 14 15  2  0  0  0
 15 16  1  0  0  0
 16 17  2  0  0  0
 15  1  1  0  0  0
  1  2  2  0  0  0
  2  3  1  0  0  0
  3  4  1  0  0  0
  4  5  2  0  0  0
  5  6  1  0  0  0
  6  7  2  0  0  0
  7  8  1  0  0  0
  8  9  2  0  0  0
  7 19  1  0  0  0
 19 20  2  0  0  0
 20 21  1  0  0  0
 21 22  2  0  0  0
 22 23  1  0  0  0
 23 24  1  0  0  0
 23 25  2  0  0  0
 17 12  1  0  0  0
  9  1  1  0  0  0
 25 19  1  0  0  0
  9  4  1  0  0  0
 11 18  1  0  0  0
  3 10  1  0  0  0
 24 26  1  0  0  0
M  END
> <minimizedAffinity>
-8.16701

> <CNNscore>
0.3958516717

> <CNNaffinity>
6.1169447899

> <CNN_VS>
2.4214029312

> <CNNaffinity_variance>
0.1660150588

$$$$
[H]Oc1c([H])nc([H])c(-c2c([H])nc3c(c2[H])c(-c2c([H])c([H])c(O[H])c([H])c2[H])c([H])n3[H])c1[H]


 26 29  0  0  0  0  0  0  0  0999 V2000
  -90.3485   29.1275    0.1299 C   0  0  0  0  0  0  0  0  0  0  0  0
  -91.3170   29.1984   -0.8801 C   0  0  0  0  0  0  0  0  0  0  0  0
  -90.8263   29.9211   -1.8951 N   0  0  0  0  0  0  0  0  0  0  0  0
  -89.5768   30.3243   -1.5884 C   0  0  0  0  0  0  0  0  0  0  0  0
  -88.6430   31.0591   -2.2325 N   0  0  0  0  0  0  0  0  0  0  0  0
  -87.4410   31.3371   -1.7179 C   0  0  0  0  0  0  0  0  0  0  0  0
  -87.1328   30.8483   -0.4589 C   0  0  0  0  0  0  0  0  0  0  0  0
  -88.0349   30.0951    0.2507 C   0  0  0  0  0  0  0  0  0  0  0  0
  -89.2611   29.8373   -0.3256 C   0  0  0  0  0  0  0  0  0  0  0  0
  -91.3330   30.1434   -2.7958 H   0  0  0  0  0  0  0  0  0  0  0  0
  -90.7299   26.2952    4.9908 O   0  0  0  0  0  0  0  0  0  0  0  0
  -90.6561   27.0278    3.8177 C   0  0  0  0  0  0  0  0  0  0  0  0
  -90.0699   26.4260    2.7073 C   0  0  0  0  0  0  0  0  0  0  0  0
  -89.9950   27.1557    1.5345 C   0  0  0  0  0  0  0  0  0  0  0  0
  -90.4698   28.4437    1.4103 C   0  0  0  0  0  0  0  0  0  0  0  0
  -91.0452   29.0145    2.5258 C   0  0  0  0  0  0  0  0  0  0  0  0
  -91.1341   28.3135    3.7071 C   0  0  0  0  0  0  0  0  0  0  0  0
  -91.1640   26.7573    5.7926 H   0  0  0  0  0  0  0  0  0  0  0  0
  -85.8470   31.1142    0.1567 C   0  0  0  0  0  0  0  0  0  0  0  0
  -85.3655   30.4241    1.2443 C   0  0  0  0  0  0  0  0  0  0  0  0
  -84.1476   30.7178    1.7831 N   0  0  0  0  0  0  0  0  0  0  0  0
  -83.3482   31.6852    1.2966 C   0  0  0  0  0  0  0  0  0  0  0  0
  -83.7993   32.3971    0.2068 C   0  0  0  0  0  0  0  0  0  0  0  0
  -83.0108   33.4155   -0.3423 O   0  0  0  0  0  0  0  0  0  0  0  0
  -85.0437   32.1071   -0.3547 C   0  0  0  0  0  0  0  0  0  0  0  0
  -82.3505   33.1792   -1.0811 H   0  0  0  0  0  0  0  0  0  0  0  0
 11 12  1  0  0  0
 12 13  2  0  0  0
 13 14  1  0  0  0
 14 15  2  0  0  0
 15 16  1  0  0  0
 16 17  2  0  0  0
 15  1  1  0  0  0
  1  2  2  0  0  0
  2  3  1  0  0  0
  3  4  1  0  0  0
  4  5  2  0  0  0
  5  6  1  0  0  0
  6  7  2  0  0  0
  7  8  1  0  0  0
  8  9  2  0  0  0
  7 19  1  0  0  0
 19 20  2  0  0  0
 20 21  1  0  0  0
 21 22  2  0  0  0
 22 23  1  0  0  0
 23 24  1  0  0  0
 23 25  2  0  0  0
 17 12  1  0  0  0
  9  1  1  0  0  0
 25 19  1  0  0  0
  9  4  1  0  0  0
 11 18  1  0  0  0
  3 10  1  0  0  0
 24 26  1  0  0  0
M  END
> <minimizedAffinity>
-8.22106

> <CNNscore>
0.3433076739

> <CNNaffinity>
6.0711994171

> <CNN_VS>
2.0842893124

> <CNNaffinity_variance>
0.1616334617

$$$$
[H]Oc1c([H])nc([H])c(-c2c([H])nc3c(c2[H])c(-c2c([H])c([H])c(O[H])c([H])c2[H])c([H])n3[H])c1[H]


 26 29  0  0  0  0  0  0  0  0999 V2000
  -85.7547   29.8950    0.8919 C   0  0  0  0  0  0  0  0  0  0  0  0
  -84.7356   30.2613    1.7809 C   0  0  0  0  0  0  0  0  0  0  0  0
  -84.4130   31.5421    1.5596 N   0  0  0  0  0  0  0  0  0  0  0  0
  -85.1806   32.0263    0.5623 C   0  0  0  0  0  0  0  0  0  0  0  0
  -85.2746   33.2268   -0.0515 N   0  0  0  0  0  0  0  0  0  0  0  0
  -86.1340   33.4814   -1.0431 C   0  0  0  0  0  0  0  0  0  0  0  0
  -86.9738   32.4642   -1.4664 C   0  0  0  0  0  0  0  0  0  0  0  0
  -86.9309   31.2206   -0.8866 C   0  0  0  0  0  0  0  0  0  0  0  0
  -86.0257   31.0102    0.1325 C   0  0  0  0  0  0  0  0  0  0  0  0
  -83.6752   32.0915    2.0803 H   0  0  0  0  0  0  0  0  0  0  0  0
  -88.2728   24.8885    0.2672 O   0  0  0  0  0  0  0  0  0  0  0  0
  -87.6495   26.1093    0.4663 C   0  0  0  0  0  0  0  0  0  0  0  0
  -87.4466   26.9278   -0.6417 C   0  0  0  0  0  0  0  0  0  0  0  0
  -86.8241   28.1474   -0.4453 C   0  0  0  0  0  0  0  0  0  0  0  0
  -86.3962   28.5914    0.7873 C   0  0  0  0  0  0  0  0  0  0  0  0
  -86.6100   27.7603    1.8667 C   0  0  0  0  0  0  0  0  0  0  0  0
  -87.2268   26.5407    1.7028 C   0  0  0  0  0  0  0  0  0  0  0  0
  -88.4109   24.3046    1.0947 H   0  0  0  0  0  0  0  0  0  0  0  0
  -87.9284   32.6743   -2.5377 C   0  0  0  0  0  0  0  0  0  0  0  0
  -88.8502   33.6946   -2.5477 C   0  0  0  0  0  0  0  0  0  0  0  0
  -89.7255   33.8440   -3.5827 N   0  0  0  0  0  0  0  0  0  0  0  0
  -89.7471   33.0185   -4.6456 C   0  0  0  0  0  0  0  0  0  0  0  0
  -88.8369   31.9846   -4.6685 C   0  0  0  0  0  0  0  0  0  0  0  0
  -88.8126   31.0939   -5.7485 O   0  0  0  0  0  0  0  0  0  0  0  0
  -87.9352   31.8199   -3.6160 C   0  0  0  0  0  0  0  0  0  0  0  0
  -88.2170   31.3080   -6.5467 H   0  0  0  0  0  0  0  0  0  0  0  0
 11 12  1  0  0  0
 12 13  2  0  0  0
 13 14  1  0  0  0
 14 15  2  0  0  0
 15 16  1  0  0  0
 16 17  2  0  0  0
 15  1  1  0  0  0
  1  2  2  0  0  0
  2  3  1  0  0  0
  3  4  1  0  0  0
  4  5  2  0  0  0
  5  6  1  0  0  0
  6  7  2  0  0  0
  7  8  1  0  0  0
  8  9  2  0  0  0
  7 19  1  0  0  0
 19 20  2  0  0  0
 20 21  1  0  0  0
 21 22  2  0  0  0
 22 23  1  0  0  0
 23 24  1  0  0  0
 23 25  2  0  0  0
 17 12  1  0  0  0
  9  1  1  0  0  0
 25 19  1  0  0  0
  9  4  1  0  0  0
 11 18  1  0  0  0
  3 10  1  0  0  0
 24 26  1  0  0  0
M  END
> <minimizedAffinity>
-9.31994

> <CNNscore>
0.3423188031

> <CNNaffinity>
6.1515207291

> <CNN_VS>
2.1057813168

> <CNNaffinity_variance>
0.1471785009

$$$$
