[H]c1nc(N([H])c2c([H])c([H])c(N3C([H])([H])C([H])([H])C([H])(N4C([H])([H])C([H])([H])N(C([H])([H])[H])C([H])([H])C4([H])[H])C([H])([H])C3([H])[H])c([H])c2OC([H])([H])[H])nc(N([H])c2c([H])c([H])c([H])c([H])c2S(=O)(=O)C([H])(C([H])([H])[H])C([H])([H])[H])c1F


 44 48  0  0  0  0  0  0  0  0999 V2000
  -87.2118   33.2257   -0.9337 N   0  0  0  0  0  0  0  0  0  0  0  0
  -87.0285   34.2999   -0.7954 H   0  0  0  0  0  0  0  0  0  0  0  0
  -86.2891   32.3295   -0.3963 C   0  0  0  0  0  0  0  0  0  0  0  0
  -85.1327   32.6706    0.1382 N   0  0  0  0  0  0  0  0  0  0  0  0
  -84.2909   31.7468    0.6258 C   0  0  0  0  0  0  0  0  0  0  0  0
  -84.6050   30.4071    0.5862 C   0  0  0  0  0  0  0  0  0  0  0  0
  -83.7836   29.4679    1.0641 F   0  0  0  0  0  0  0  0  0  0  0  0
  -85.8379   30.0557    0.0165 C   0  0  0  0  0  0  0  0  0  0  0  0
  -86.5848   31.0244   -0.4292 N   0  0  0  0  0  0  0  0  0  0  0  0
  -86.1726   28.6713   -0.0431 N   0  0  0  0  0  0  0  0  0  0  0  0
  -85.4306   28.0060    0.3375 H   0  0  0  0  0  0  0  0  0  0  0  0
  -87.3275   28.0717   -0.5240 C   0  0  0  0  0  0  0  0  0  0  0  0
  -87.7379   28.1205   -1.8292 C   0  0  0  0  0  0  0  0  0  0  0  0
  -88.9083   27.5337   -2.2963 C   0  0  0  0  0  0  0  0  0  0  0  0
  -89.7127   26.8642   -1.4285 C   0  0  0  0  0  0  0  0  0  0  0  0
  -89.3069   26.8063   -0.0964 C   0  0  0  0  0  0  0  0  0  0  0  0
  -88.1633   27.3751    0.3823 C   0  0  0  0  0  0  0  0  0  0  0  0
  -87.7322   27.2489    2.0646 S   0  0  0  0  0  0  0  0  0  0  0  0
  -87.3973   28.6096    2.6196 O   0  0  0  0  0  0  0  0  0  0  0  0
  -86.5777   26.2807    2.2368 O   0  0  0  0  0  0  0  0  0  0  0  0
  -89.0787   26.6542    3.0813 C   0  0  0  0  0  0  0  0  0  0  0  0
  -89.5568   25.2999    2.6719 C   0  0  0  0  0  0  0  0  0  0  0  0
  -90.1232   27.7215    3.1354 C   0  0  0  0  0  0  0  0  0  0  0  0
  -88.6496   33.5706   -2.8619 C   0  0  0  0  0  0  0  0  0  0  0  0
  -89.7451   33.2493   -3.6001 C   0  0  0  0  0  0  0  0  0  0  0  0
  -90.6478   32.2656   -3.2294 C   0  0  0  0  0  0  0  0  0  0  0  0
  -90.3927   31.6099   -2.0622 C   0  0  0  0  0  0  0  0  0  0  0  0
  -89.2544   31.9399   -1.2900 C   0  0  0  0  0  0  0  0  0  0  0  0
  -88.3720   32.9012   -1.6516 C   0  0  0  0  0  0  0  0  0  0  0  0
  -91.8105   31.9570   -4.0260 N   0  0  0  0  0  0  0  0  0  0  0  0
  -92.4119   32.9145   -4.9009 C   0  0  0  0  0  0  0  0  0  0  0  0
  -92.7607   32.3963   -6.2627 C   0  0  0  0  0  0  0  0  0  0  0  0
  -93.3797   31.0209   -6.2201 C   0  0  0  0  0  0  0  0  0  0  0  0
  -93.5997   30.5596   -4.7990 C   0  0  0  0  0  0  0  0  0  0  0  0
  -92.3789   30.6375   -3.9498 C   0  0  0  0  0  0  0  0  0  0  0  0
  -94.6110   31.0572   -6.9051 N   0  0  0  0  0  0  0  0  0  0  0  0
  -94.7891   32.0619   -7.8720 C   0  0  0  0  0  0  0  0  0  0  0  0
  -95.4624   31.6640   -9.1346 C   0  0  0  0  0  0  0  0  0  0  0  0
  -96.3546   30.5561   -9.0226 N   0  0  0  0  0  0  0  0  0  0  0  0
  -97.6966   30.9555   -8.7314 C   0  0  0  0  0  0  0  0  0  0  0  0
  -95.8653   29.4928   -8.2070 C   0  0  0  0  0  0  0  0  0  0  0  0
  -95.5330   30.0304   -6.8039 C   0  0  0  0  0  0  0  0  0  0  0  0
  -87.5338   34.9988   -4.5504 C   0  0  0  0  0  0  0  0  0  0  0  0
  -87.7629   34.5533   -3.2487 O   0  0  0  0  0  0  0  0  0  0  0  0
 43 44  1  0  0  0
 44 24  1  0  0  0
 24 25  2  0  0  0
 25 26  1  0  0  0
 26 27  2  0  0  0
 27 28  1  0  0  0
 28 29  2  0  0  0
 29  1  1  0  0  0
  1  3  1  0  0  0
  3  4  2  0  0  0
  4  5  1  0  0  0
  5  6  2  0  0  0
  6  7  1  0  0  0
  6  8  1  0  0  0
  8 10  1  0  0  0
 10 12  1  0  0  0
 12 13  2  0  0  0
 13 14  1  0  0  0
 14 15  2  0  0  0
 15 16  1  0  0  0
 16 17  2  0  0  0
 17 18  1  0  0  0
 18 19  2  0  0  0
 18 20  2  0  0  0
 18 21  1  0  0  0
 21 22  1  0  0  0
 21 23  1  0  0  0
  8  9  2  0  0  0
 26 30  1  0  0  0
 30 31  1  0  0  0
 31 32  1  0  0  0
 32 33  1  0  0  0
 33 34  1  0  0  0
 34 35  1  0  0  0
 33 36  1  0  0  0
 36 37  1  0  0  0
 37 38  1  0  0  0
 38 39  1  0  0  0
 39 40  1  0  0  0
 39 41  1  0  0  0
 41 42  1  0  0  0
 29 24  1  0  0  0
  9  3  1  0  0  0
 35 30  1  0  0  0
 42 36  1  0  0  0
 17 12  1  0  0  0
  1  2  1  0  0  0
 10 11  1  0  0  0
M  END
> <minimizedAffinity>
-7.68235

> <CNNscore>
0.1558222771

> <CNNaffinity>
7.2443122864

> <CNN_VS>
1.1288251877

> <CNNaffinity_variance>
0.0487057343

$$$$
[H]c1nc(N([H])c2c([H])c([H])c(N3C([H])([H])C([H])([H])C([H])(N4C([H])([H])C([H])([H])N(C([H])([H])[H])C([H])([H])C4([H])[H])C([H])([H])C3([H])[H])c([H])c2OC([H])([H])[H])nc(N([H])c2c([H])c([H])c([H])c([H])c2S(=O)(=O)C([H])(C([H])([H])[H])C([H])([H])[H])c1F


 44 48  0  0  0  0  0  0  0  0999 V2000
  -86.7829   33.5638   -3.6054 N   0  0  0  0  0  0  0  0  0  0  0  0
  -85.7956   33.3594   -4.0413 H   0  0  0  0  0  0  0  0  0  0  0  0
  -87.2751   34.8658   -3.6806 C   0  0  0  0  0  0  0  0  0  0  0  0
  -88.3513   35.3004   -3.0543 N   0  0  0  0  0  0  0  0  0  0  0  0
  -88.7696   36.5683   -3.1858 C   0  0  0  0  0  0  0  0  0  0  0  0
  -88.0889   37.4630   -3.9801 C   0  0  0  0  0  0  0  0  0  0  0  0
  -88.4855   38.7303   -4.1282 F   0  0  0  0  0  0  0  0  0  0  0  0
  -86.9450   36.9903   -4.6408 C   0  0  0  0  0  0  0  0  0  0  0  0
  -86.6204   35.7440   -4.4499 N   0  0  0  0  0  0  0  0  0  0  0  0
  -86.2357   37.9012   -5.4770 N   0  0  0  0  0  0  0  0  0  0  0  0
  -85.3778   38.3541   -5.0331 H   0  0  0  0  0  0  0  0  0  0  0  0
  -86.5046   38.2771   -6.7850 C   0  0  0  0  0  0  0  0  0  0  0  0
  -87.5322   37.7754   -7.5377 C   0  0  0  0  0  0  0  0  0  0  0  0
  -87.7799   38.1436   -8.8551 C   0  0  0  0  0  0  0  0  0  0  0  0
  -86.9704   39.0547   -9.4578 C   0  0  0  0  0  0  0  0  0  0  0  0
  -85.9202   39.5741   -8.7029 C   0  0  0  0  0  0  0  0  0  0  0  0
  -85.6597   39.2262   -7.4100 C   0  0  0  0  0  0  0  0  0  0  0  0
  -84.3254   39.9303   -6.5407 S   0  0  0  0  0  0  0  0  0  0  0  0
  -84.7904   40.4479   -5.2037 O   0  0  0  0  0  0  0  0  0  0  0  0
  -83.6846   41.0284   -7.3675 O   0  0  0  0  0  0  0  0  0  0  0  0
  -83.0455   38.7413   -6.1558 C   0  0  0  0  0  0  0  0  0  0  0  0
  -82.7172   38.6975   -4.6995 C   0  0  0  0  0  0  0  0  0  0  0  0
  -81.8923   38.9904   -7.0731 C   0  0  0  0  0  0  0  0  0  0  0  0
  -88.3299   31.6981   -3.7792 C   0  0  0  0  0  0  0  0  0  0  0  0
  -88.9324   30.6005   -3.2496 C   0  0  0  0  0  0  0  0  0  0  0  0
  -88.7047   30.1603   -1.9557 C   0  0  0  0  0  0  0  0  0  0  0  0
  -87.8282   30.8878   -1.2075 C   0  0  0  0  0  0  0  0  0  0  0  0
  -87.1982   32.0307   -1.7533 C   0  0  0  0  0  0  0  0  0  0  0  0
  -87.4205   32.4616   -3.0176 C   0  0  0  0  0  0  0  0  0  0  0  0
  -89.3709   29.0001   -1.4156 N   0  0  0  0  0  0  0  0  0  0  0  0
  -90.0454   28.0520   -2.2463 C   0  0  0  0  0  0  0  0  0  0  0  0
  -89.7624   26.6159   -1.9265 C   0  0  0  0  0  0  0  0  0  0  0  0
  -89.7497   26.3425   -0.4427 C   0  0  0  0  0  0  0  0  0  0  0  0
  -90.1430   27.5684    0.3467 C   0  0  0  0  0  0  0  0  0  0  0  0
  -89.3463   28.7795    0.0060 C   0  0  0  0  0  0  0  0  0  0  0  0
  -90.6475   25.2911   -0.1684 N   0  0  0  0  0  0  0  0  0  0  0  0
  -91.0034   24.4442   -1.2324 C   0  0  0  0  0  0  0  0  0  0  0  0
  -91.0815   22.9914   -0.9344 C   0  0  0  0  0  0  0  0  0  0  0  0
  -91.3796   22.6663    0.4226 N   0  0  0  0  0  0  0  0  0  0  0  0
  -92.7830   22.5314    0.6623 C   0  0  0  0  0  0  0  0  0  0  0  0
  -90.6921   23.4700    1.3799 C   0  0  0  0  0  0  0  0  0  0  0  0
  -91.0046   24.9552    1.1255 C   0  0  0  0  0  0  0  0  0  0  0  0
  -89.6479   32.8916   -5.5039 C   0  0  0  0  0  0  0  0  0  0  0  0
  -88.5703   32.1196   -5.0701 O   0  0  0  0  0  0  0  0  0  0  0  0
 43 44  1  0  0  0
 44 24  1  0  0  0
 24 25  2  0  0  0
 25 26  1  0  0  0
 26 27  2  0  0  0
 27 28  1  0  0  0
 28 29  2  0  0  0
 29  1  1  0  0  0
  1  3  1  0  0  0
  3  4  2  0  0  0
  4  5  1  0  0  0
  5  6  2  0  0  0
  6  7  1  0  0  0
  6  8  1  0  0  0
  8 10  1  0  0  0
 10 12  1  0  0  0
 12 13  2  0  0  0
 13 14  1  0  0  0
 14 15  2  0  0  0
 15 16  1  0  0  0
 16 17  2  0  0  0
 17 18  1  0  0  0
 18 19  2  0  0  0
 18 20  2  0  0  0
 18 21  1  0  0  0
 21 22  1  0  0  0
 21 23  1  0  0  0
  8  9  2  0  0  0
 26 30  1  0  0  0
 30 31  1  0  0  0
 31 32  1  0  0  0
 32 33  1  0  0  0
 33 34  1  0  0  0
 34 35  1  0  0  0
 33 36  1  0  0  0
 36 37  1  0  0  0
 37 38  1  0  0  0
 38 39  1  0  0  0
 39 40  1  0  0  0
 39 41  1  0  0  0
 41 42  1  0  0  0
 29 24  1  0  0  0
  9  3  1  0  0  0
 35 30  1  0  0  0
 42 36  1  0  0  0
 17 12  1  0  0  0
  1  2  1  0  0  0
 10 11  1  0  0  0
M  END
> <minimizedAffinity>
-7.38343

> <CNNscore>
0.1413596570

> <CNNaffinity>
6.4967331886

> <CNN_VS>
0.9183759689

> <CNNaffinity_variance>
0.2618461549

$$$$
[H]c1nc(N([H])c2c([H])c([H])c(N3C([H])([H])C([H])([H])C([H])(N4C([H])([H])C([H])([H])N(C([H])([H])[H])C([H])([H])C4([H])[H])C([H])([H])C3([H])[H])c([H])c2OC([H])([H])[H])nc(N([H])c2c([H])c([H])c([H])c([H])c2S(=O)(=O)C([H])(C([H])([H])[H])C([H])([H])[H])c1F


 44 48  0  0  0  0  0  0  0  0999 V2000
  -86.6525   34.1028   -3.8261 N   0  0  0  0  0  0  0  0  0  0  0  0
  -85.5663   34.1833   -3.9680 H   0  0  0  0  0  0  0  0  0  0  0  0
  -87.4291   35.2368   -4.0593 C   0  0  0  0  0  0  0  0  0  0  0  0
  -87.9513   35.9975   -3.1170 N   0  0  0  0  0  0  0  0  0  0  0  0
  -88.6990   37.0691   -3.4214 C   0  0  0  0  0  0  0  0  0  0  0  0
  -88.9478   37.4140   -4.7306 C   0  0  0  0  0  0  0  0  0  0  0  0
  -89.6897   38.4753   -5.0596 F   0  0  0  0  0  0  0  0  0  0  0  0
  -88.3866   36.5985   -5.7246 C   0  0  0  0  0  0  0  0  0  0  0  0
  -87.6767   35.5814   -5.3288 N   0  0  0  0  0  0  0  0  0  0  0  0
  -88.6450   36.9351   -7.0856 N   0  0  0  0  0  0  0  0  0  0  0  0
  -87.9524   37.6165   -7.5262 H   0  0  0  0  0  0  0  0  0  0  0  0
  -89.6683   36.4985   -7.9143 C   0  0  0  0  0  0  0  0  0  0  0  0
  -90.3303   35.3096   -7.7645 C   0  0  0  0  0  0  0  0  0  0  0  0
  -91.3402   34.8722   -8.6138 C   0  0  0  0  0  0  0  0  0  0  0  0
  -91.7144   35.6508   -9.6637 C   0  0  0  0  0  0  0  0  0  0  0  0
  -91.0489   36.8643   -9.8280 C   0  0  0  0  0  0  0  0  0  0  0  0
  -90.0557   37.3117   -9.0070 C   0  0  0  0  0  0  0  0  0  0  0  0
  -89.2810   38.8458   -9.2862 S   0  0  0  0  0  0  0  0  0  0  0  0
  -89.1793   39.6198   -7.9969 O   0  0  0  0  0  0  0  0  0  0  0  0
  -90.0363   39.6277  -10.3437 O   0  0  0  0  0  0  0  0  0  0  0  0
  -87.5941   38.6756   -9.8568 C   0  0  0  0  0  0  0  0  0  0  0  0
  -86.6040   39.2923   -8.9240 C   0  0  0  0  0  0  0  0  0  0  0  0
  -87.5348   39.1515  -11.2722 C   0  0  0  0  0  0  0  0  0  0  0  0
  -87.1086   32.5140   -2.0451 C   0  0  0  0  0  0  0  0  0  0  0  0
  -87.5872   31.3166   -1.6144 C   0  0  0  0  0  0  0  0  0  0  0  0
  -88.1030   30.3546   -2.4677 C   0  0  0  0  0  0  0  0  0  0  0  0
  -88.1149   30.6585   -3.7962 C   0  0  0  0  0  0  0  0  0  0  0  0
  -87.6183   31.9028   -4.2502 C   0  0  0  0  0  0  0  0  0  0  0  0
  -87.1138   32.8433   -3.4168 C   0  0  0  0  0  0  0  0  0  0  0  0
  -88.5898   29.0860   -1.9828 N   0  0  0  0  0  0  0  0  0  0  0  0
  -89.9782   28.8425   -1.7437 C   0  0  0  0  0  0  0  0  0  0  0  0
  -90.4920   27.5376   -2.2706 C   0  0  0  0  0  0  0  0  0  0  0  0
  -89.5408   26.3938   -2.0183 C   0  0  0  0  0  0  0  0  0  0  0  0
  -88.3570   26.8344   -1.1904 C   0  0  0  0  0  0  0  0  0  0  0  0
  -87.6504   28.0229   -1.7434 C   0  0  0  0  0  0  0  0  0  0  0  0
  -90.2353   25.3670   -1.3475 N   0  0  0  0  0  0  0  0  0  0  0  0
  -89.9589   24.0408   -1.7228 C   0  0  0  0  0  0  0  0  0  0  0  0
  -89.8459   23.0447   -0.6270 C   0  0  0  0  0  0  0  0  0  0  0  0
  -90.5810   23.3581    0.5551 N   0  0  0  0  0  0  0  0  0  0  0  0
  -91.9042   22.8155    0.5422 C   0  0  0  0  0  0  0  0  0  0  0  0
  -90.5096   24.7299    0.9404 C   0  0  0  0  0  0  0  0  0  0  0  0
  -90.9962   25.6170   -0.2192 C   0  0  0  0  0  0  0  0  0  0  0  0
  -85.3530   33.4244   -0.5534 C   0  0  0  0  0  0  0  0  0  0  0  0
  -86.5991   33.4584   -1.1789 O   0  0  0  0  0  0  0  0  0  0  0  0
 43 44  1  0  0  0
 44 24  1  0  0  0
 24 25  2  0  0  0
 25 26  1  0  0  0
 26 27  2  0  0  0
 27 28  1  0  0  0
 28 29  2  0  0  0
 29  1  1  0  0  0
  1  3  1  0  0  0
  3  4  2  0  0  0
  4  5  1  0  0  0
  5  6  2  0  0  0
  6  7  1  0  0  0
  6  8  1  0  0  0
  8 10  1  0  0  0
 10 12  1  0  0  0
 12 13  2  0  0  0
 13 14  1  0  0  0
 14 15  2  0  0  0
 15 16  1  0  0  0
 16 17  2  0  0  0
 17 18  1  0  0  0
 18 19  2  0  0  0
 18 20  2  0  0  0
 18 21  1  0  0  0
 21 22  1  0  0  0
 21 23  1  0  0  0
  8  9  2  0  0  0
 26 30  1  0  0  0
 30 31  1  0  0  0
 31 32  1  0  0  0
 32 33  1  0  0  0
 33 34  1  0  0  0
 34 35  1  0  0  0
 33 36  1  0  0  0
 36 37  1  0  0  0
 37 38  1  0  0  0
 38 39  1  0  0  0
 39 40  1  0  0  0
 39 41  1  0  0  0
 41 42  1  0  0  0
 29 24  1  0  0  0
  9  3  1  0  0  0
 35 30  1  0  0  0
 42 36  1  0  0  0
 17 12  1  0  0  0
  1  2  1  0  0  0
 10 11  1  0  0  0
M  END
> <minimizedAffinity>
-7.83767

> <CNNscore>
0.1125008538

> <CNNaffinity>
6.4009656906

> <CNN_VS>
0.7201141119

> <CNNaffinity_variance>
0.3527361751

$$$$
[H]c1nc(N([H])c2c([H])c([H])c(N3C([H])([H])C([H])([H])C([H])(N4C([H])([H])C([H])([H])N(C([H])([H])[H])C([H])([H])C4([H])[H])C([H])([H])C3([H])[H])c([H])c2OC([H])([H])[H])nc(N([H])c2c([H])c([H])c([H])c([H])c2S(=O)(=O)C([H])(C([H])([H])[H])C([H])([H])[H])c1F


 44 48  0  0  0  0  0  0  0  0999 V2000
  -87.2263   26.0816    1.3241 N   0  0  0  0  0  0  0  0  0  0  0  0
  -87.2043   25.1274    1.8678 H   0  0  0  0  0  0  0  0  0  0  0  0
  -86.2459   27.0271    1.6210 C   0  0  0  0  0  0  0  0  0  0  0  0
  -85.0698   26.7505    2.1497 N   0  0  0  0  0  0  0  0  0  0  0  0
  -84.1811   27.7191    2.4176 C   0  0  0  0  0  0  0  0  0  0  0  0
  -84.4653   29.0390    2.1492 C   0  0  0  0  0  0  0  0  0  0  0  0
  -83.5980   30.0219    2.4077 F   0  0  0  0  0  0  0  0  0  0  0  0
  -85.7188   29.3217    1.5860 C   0  0  0  0  0  0  0  0  0  0  0  0
  -86.5118   28.3135    1.3635 N   0  0  0  0  0  0  0  0  0  0  0  0
  -86.0333   30.6851    1.3134 N   0  0  0  0  0  0  0  0  0  0  0  0
  -86.8637   31.0787    1.8554 H   0  0  0  0  0  0  0  0  0  0  0  0
  -85.4092   31.5689    0.4452 C   0  0  0  0  0  0  0  0  0  0  0  0
  -84.1940   32.1544    0.6796 C   0  0  0  0  0  0  0  0  0  0  0  0
  -83.5873   33.0553   -0.1880 C   0  0  0  0  0  0  0  0  0  0  0  0
  -84.2141   33.3934   -1.3460 C   0  0  0  0  0  0  0  0  0  0  0  0
  -85.4520   32.8046   -1.5977 C   0  0  0  0  0  0  0  0  0  0  0  0
  -86.0646   31.9192   -0.7602 C   0  0  0  0  0  0  0  0  0  0  0  0
  -87.6127   31.2286   -1.1580 S   0  0  0  0  0  0  0  0  0  0  0  0
  -88.6050   31.5074   -0.0584 O   0  0  0  0  0  0  0  0  0  0  0  0
  -87.4710   29.7403   -1.4123 O   0  0  0  0  0  0  0  0  0  0  0  0
  -88.3358   31.9506   -2.6264 C   0  0  0  0  0  0  0  0  0  0  0  0
  -89.0858   33.2102   -2.3413 C   0  0  0  0  0  0  0  0  0  0  0  0
  -89.1062   30.8837   -3.3346 C   0  0  0  0  0  0  0  0  0  0  0  0
  -89.5865   26.4037    0.8447 C   0  0  0  0  0  0  0  0  0  0  0  0
  -90.6071   26.5794   -0.0361 C   0  0  0  0  0  0  0  0  0  0  0  0
  -90.4300   26.5894   -1.4102 C   0  0  0  0  0  0  0  0  0  0  0  0
  -89.1573   26.4112   -1.8642 C   0  0  0  0  0  0  0  0  0  0  0  0
  -88.0915   26.2280   -0.9525 C   0  0  0  0  0  0  0  0  0  0  0  0
  -88.2639   26.2180    0.3906 C   0  0  0  0  0  0  0  0  0  0  0  0
  -91.5352   26.7627   -2.3213 N   0  0  0  0  0  0  0  0  0  0  0  0
  -92.2193   28.0102   -2.4622 C   0  0  0  0  0  0  0  0  0  0  0  0
  -92.4811   28.4325   -3.8756 C   0  0  0  0  0  0  0  0  0  0  0  0
  -92.9469   27.2916   -4.7463 C   0  0  0  0  0  0  0  0  0  0  0  0
  -93.1446   26.0293   -3.9410 C   0  0  0  0  0  0  0  0  0  0  0  0
  -91.9575   25.6479   -3.1269 C   0  0  0  0  0  0  0  0  0  0  0  0
  -94.1603   27.6585   -5.3624 N   0  0  0  0  0  0  0  0  0  0  0  0
  -94.0898   28.4688   -6.5088 C   0  0  0  0  0  0  0  0  0  0  0  0
  -95.0091   28.1307   -7.6252 C   0  0  0  0  0  0  0  0  0  0  0  0
  -96.2137   27.4702   -7.2394 N   0  0  0  0  0  0  0  0  0  0  0  0
  -97.2824   28.3825   -6.9732 C   0  0  0  0  0  0  0  0  0  0  0  0
  -96.0347   26.4644   -6.2436 C   0  0  0  0  0  0  0  0  0  0  0  0
  -95.3652   27.0810   -5.0027 C   0  0  0  0  0  0  0  0  0  0  0  0
  -90.0652   27.5023    3.0126 C   0  0  0  0  0  0  0  0  0  0  0  0
  -89.7841   26.3972    2.2095 O   0  0  0  0  0  0  0  0  0  0  0  0
 43 44  1  0  0  0
 44 24  1  0  0  0
 24 25  2  0  0  0
 25 26  1  0  0  0
 26 27  2  0  0  0
 27 28  1  0  0  0
 28 29  2  0  0  0
 29  1  1  0  0  0
  1  3  1  0  0  0
  3  4  2  0  0  0
  4  5  1  0  0  0
  5  6  2  0  0  0
  6  7  1  0  0  0
  6  8  1  0  0  0
  8 10  1  0  0  0
 10 12  1  0  0  0
 12 13  2  0  0  0
 13 14  1  0  0  0
 14 15  2  0  0  0
 15 16  1  0  0  0
 16 17  2  0  0  0
 17 18  1  0  0  0
 18 19  2  0  0  0
 18 20  2  0  0  0
 18 21  1  0  0  0
 21 22  1  0  0  0
 21 23  1  0  0  0
  8  9  2  0  0  0
 26 30  1  0  0  0
 30 31  1  0  0  0
 31 32  1  0  0  0
 32 33  1  0  0  0
 33 34  1  0  0  0
 34 35  1  0  0  0
 33 36  1  0  0  0
 36 37  1  0  0  0
 37 38  1  0  0  0
 38 39  1  0  0  0
 39 40  1  0  0  0
 39 41  1  0  0  0
 41 42  1  0  0  0
 29 24  1  0  0  0
  9  3  1  0  0  0
 35 30  1  0  0  0
 42 36  1  0  0  0
 17 12  1  0  0  0
  1  2  1  0  0  0
 10 11  1  0  0  0
M  END
> <minimizedAffinity>
-8.30880

> <CNNscore>
0.1077817827

> <CNNaffinity>
7.0087523460

> <CNN_VS>
0.7554157972

> <CNNaffinity_variance>
0.4403823018

$$$$
[H]c1nc(N([H])c2c([H])c([H])c(N3C([H])([H])C([H])([H])C([H])(N4C([H])([H])C([H])([H])N(C([H])([H])[H])C([H])([H])C4([H])[H])C([H])([H])C3([H])[H])c([H])c2OC([H])([H])[H])nc(N([H])c2c([H])c([H])c([H])c([H])c2S(=O)(=O)C([H])(C([H])([H])[H])C([H])([H])[H])c1F


 44 48  0  0  0  0  0  0  0  0999 V2000
  -86.4326   27.8756    1.2925 N   0  0  0  0  0  0  0  0  0  0  0  0
  -86.0328   27.4178    2.2075 H   0  0  0  0  0  0  0  0  0  0  0  0
  -85.8957   29.0947    0.8817 C   0  0  0  0  0  0  0  0  0  0  0  0
  -84.6107   29.3916    0.8900 N   0  0  0  0  0  0  0  0  0  0  0  0
  -84.1708   30.5938    0.4888 C   0  0  0  0  0  0  0  0  0  0  0  0
  -85.0464   31.5622    0.0526 C   0  0  0  0  0  0  0  0  0  0  0  0
  -84.6336   32.7672   -0.3510 F   0  0  0  0  0  0  0  0  0  0  0  0
  -86.4107   31.2353    0.0469 C   0  0  0  0  0  0  0  0  0  0  0  0
  -86.7383   30.0433    0.4552 N   0  0  0  0  0  0  0  0  0  0  0  0
  -87.3317   32.2316   -0.3905 N   0  0  0  0  0  0  0  0  0  0  0  0
  -87.9529   32.6446    0.3722 H   0  0  0  0  0  0  0  0  0  0  0  0
  -87.5295   32.7386   -1.6666 C   0  0  0  0  0  0  0  0  0  0  0  0
  -86.7130   33.6583   -2.2681 C   0  0  0  0  0  0  0  0  0  0  0  0
  -86.9324   34.1755   -3.5396 C   0  0  0  0  0  0  0  0  0  0  0  0
  -88.0137   33.7614   -4.2521 C   0  0  0  0  0  0  0  0  0  0  0  0
  -88.8535   32.8248   -3.6520 C   0  0  0  0  0  0  0  0  0  0  0  0
  -88.6566   32.3053   -2.4062 C   0  0  0  0  0  0  0  0  0  0  0  0
  -89.7573   31.1343   -1.7361 S   0  0  0  0  0  0  0  0  0  0  0  0
  -91.1121   31.2632   -2.3837 O   0  0  0  0  0  0  0  0  0  0  0  0
  -89.8444   31.3006   -0.2312 O   0  0  0  0  0  0  0  0  0  0  0  0
  -89.2520   29.4480   -2.0544 C   0  0  0  0  0  0  0  0  0  0  0  0
  -87.9941   29.3635   -2.8551 C   0  0  0  0  0  0  0  0  0  0  0  0
  -90.4263   28.7112   -2.6124 C   0  0  0  0  0  0  0  0  0  0  0  0
  -88.7133   27.0376    1.2780 C   0  0  0  0  0  0  0  0  0  0  0  0
  -89.7337   26.3793    0.6666 C   0  0  0  0  0  0  0  0  0  0  0  0
  -89.6158   25.7890   -0.5813 C   0  0  0  0  0  0  0  0  0  0  0  0
  -88.4036   25.8935   -1.1954 C   0  0  0  0  0  0  0  0  0  0  0  0
  -87.3384   26.5774   -0.5641 C   0  0  0  0  0  0  0  0  0  0  0  0
  -87.4528   27.1543    0.6556 C   0  0  0  0  0  0  0  0  0  0  0  0
  -90.7124   25.0833   -1.1987 N   0  0  0  0  0  0  0  0  0  0  0  0
  -92.0382   25.6167   -1.2365 C   0  0  0  0  0  0  0  0  0  0  0  0
  -92.7266   25.5083   -2.5628 C   0  0  0  0  0  0  0  0  0  0  0  0
  -92.5055   24.1706   -3.2248 C   0  0  0  0  0  0  0  0  0  0  0  0
  -91.7380   23.2311   -2.3252 C   0  0  0  0  0  0  0  0  0  0  0  0
  -90.4640   23.8047   -1.8100 C   0  0  0  0  0  0  0  0  0  0  0  0
  -93.7591   23.6092   -3.5411 N   0  0  0  0  0  0  0  0  0  0  0  0
  -94.3733   22.7985   -2.5709 C   0  0  0  0  0  0  0  0  0  0  0  0
  -95.8367   22.9698   -2.3843 C   0  0  0  0  0  0  0  0  0  0  0  0
  -96.5424   23.4432   -3.5305 N   0  0  0  0  0  0  0  0  0  0  0  0
  -97.0295   22.3818   -4.3561 C   0  0  0  0  0  0  0  0  0  0  0  0
  -95.8716   24.4828   -4.2408 C   0  0  0  0  0  0  0  0  0  0  0  0
  -94.4720   24.0001   -4.6608 C   0  0  0  0  0  0  0  0  0  0  0  0
  -89.7099   27.2056    3.5395 C   0  0  0  0  0  0  0  0  0  0  0  0
  -88.8514   27.6187    2.5210 O   0  0  0  0  0  0  0  0  0  0  0  0
 43 44  1  0  0  0
 44 24  1  0  0  0
 24 25  2  0  0  0
 25 26  1  0  0  0
 26 27  2  0  0  0
 27 28  1  0  0  0
 28 29  2  0  0  0
 29  1  1  0  0  0
  1  3  1  0  0  0
  3  4  2  0  0  0
  4  5  1  0  0  0
  5  6  2  0  0  0
  6  7  1  0  0  0
  6  8  1  0  0  0
  8 10  1  0  0  0
 10 12  1  0  0  0
 12 13  2  0  0  0
 13 14  1  0  0  0
 14 15  2  0  0  0
 15 16  1  0  0  0
 16 17  2  0  0  0
 17 18  1  0  0  0
 18 19  2  0  0  0
 18 20  2  0  0  0
 18 21  1  0  0  0
 21 22  1  0  0  0
 21 23  1  0  0  0
  8  9  2  0  0  0
 26 30  1  0  0  0
 30 31  1  0  0  0
 31 32  1  0  0  0
 32 33  1  0  0  0
 33 34  1  0  0  0
 34 35  1  0  0  0
 33 36  1  0  0  0
 36 37  1  0  0  0
 37 38  1  0  0  0
 38 39  1  0  0  0
 39 40  1  0  0  0
 39 41  1  0  0  0
 41 42  1  0  0  0
 29 24  1  0  0  0
  9  3  1  0  0  0
 35 30  1  0  0  0
 42 36  1  0  0  0
 17 12  1  0  0  0
  1  2  1  0  0  0
 10 11  1  0  0  0
M  END
> <minimizedAffinity>
-7.81218

> <CNNscore>
0.0741225630

> <CNNaffinity>
6.9307641983

> <CNN_VS>
0.5137259960

> <CNNaffinity_variance>
0.3780992925

$$$$
[H]c1nc(N([H])c2c([H])c([H])c(N3C([H])([H])C([H])([H])C([H])(N4C([H])([H])C([H])([H])N(C([H])([H])[H])C([H])([H])C4([H])[H])C([H])([H])C3([H])[H])c([H])c2OC([H])([H])[H])nc(N([H])c2c([H])c([H])c([H])c([H])c2S(=O)(=O)C([H])(C([H])([H])[H])C([H])([H])[H])c1F


 44 48  0  0  0  0  0  0  0  0999 V2000
  -86.9595   32.7408   -2.6119 N   0  0  0  0  0  0  0  0  0  0  0  0
  -85.8834   32.8591   -2.4259 H   0  0  0  0  0  0  0  0  0  0  0  0
  -87.6783   33.8592   -3.0315 C   0  0  0  0  0  0  0  0  0  0  0  0
  -88.9469   34.0863   -2.7517 N   0  0  0  0  0  0  0  0  0  0  0  0
  -89.5742   35.1833   -3.2023 C   0  0  0  0  0  0  0  0  0  0  0  0
  -88.9148   36.1131   -3.9739 C   0  0  0  0  0  0  0  0  0  0  0  0
  -89.5172   37.2127   -4.4355 F   0  0  0  0  0  0  0  0  0  0  0  0
  -87.5654   35.8619   -4.2646 C   0  0  0  0  0  0  0  0  0  0  0  0
  -87.0464   34.7698   -3.7819 N   0  0  0  0  0  0  0  0  0  0  0  0
  -86.8716   36.8093   -5.0728 N   0  0  0  0  0  0  0  0  0  0  0  0
  -86.2477   36.3917   -5.8309 H   0  0  0  0  0  0  0  0  0  0  0  0
  -86.8973   38.1949   -5.0117 C   0  0  0  0  0  0  0  0  0  0  0  0
  -86.5604   38.9262   -3.9044 C   0  0  0  0  0  0  0  0  0  0  0  0
  -86.6101   40.3143   -3.8474 C   0  0  0  0  0  0  0  0  0  0  0  0
  -87.0127   41.0140   -4.9413 C   0  0  0  0  0  0  0  0  0  0  0  0
  -87.3583   40.2822   -6.0760 C   0  0  0  0  0  0  0  0  0  0  0  0
  -87.3170   38.9210   -6.1527 C   0  0  0  0  0  0  0  0  0  0  0  0
  -87.7638   38.0888   -7.6154 S   0  0  0  0  0  0  0  0  0  0  0  0
  -88.9617   37.2082   -7.3681 O   0  0  0  0  0  0  0  0  0  0  0  0
  -86.5875   37.2892   -8.1416 O   0  0  0  0  0  0  0  0  0  0  0  0
  -88.2719   39.2041   -8.9186 C   0  0  0  0  0  0  0  0  0  0  0  0
  -89.5031   38.7421   -9.6265 C   0  0  0  0  0  0  0  0  0  0  0  0
  -87.0856   39.4701   -9.7877 C   0  0  0  0  0  0  0  0  0  0  0  0
  -87.4204   30.8994   -1.0951 C   0  0  0  0  0  0  0  0  0  0  0  0
  -87.9436   29.6703   -0.8424 C   0  0  0  0  0  0  0  0  0  0  0  0
  -88.5495   28.8895   -1.8135 C   0  0  0  0  0  0  0  0  0  0  0  0
  -88.6051   29.4115   -3.0712 C   0  0  0  0  0  0  0  0  0  0  0  0
  -88.0624   30.6899   -3.3400 C   0  0  0  0  0  0  0  0  0  0  0  0
  -87.4699   31.4534   -2.3915 C   0  0  0  0  0  0  0  0  0  0  0  0
  -89.0824   27.5816   -1.5187 N   0  0  0  0  0  0  0  0  0  0  0  0
  -88.8097   26.9062   -0.2885 C   0  0  0  0  0  0  0  0  0  0  0  0
  -90.0017   26.2777    0.3664 C   0  0  0  0  0  0  0  0  0  0  0  0
  -90.9023   25.5739   -0.6186 C   0  0  0  0  0  0  0  0  0  0  0  0
  -90.3108   25.5808   -2.0081 C   0  0  0  0  0  0  0  0  0  0  0  0
  -89.9286   26.9377   -2.4880 C   0  0  0  0  0  0  0  0  0  0  0  0
  -91.0926   24.2451   -0.1885 N   0  0  0  0  0  0  0  0  0  0  0  0
  -90.3726   23.8163    0.9401 C   0  0  0  0  0  0  0  0  0  0  0  0
  -91.1043   22.9747    1.9209 C   0  0  0  0  0  0  0  0  0  0  0  0
  -92.1854   22.2160    1.3809 N   0  0  0  0  0  0  0  0  0  0  0  0
  -91.7835   20.9137    0.9475 C   0  0  0  0  0  0  0  0  0  0  0  0
  -92.9869   22.9294    0.4407 C   0  0  0  0  0  0  0  0  0  0  0  0
  -92.0993   23.4482   -0.7043 C   0  0  0  0  0  0  0  0  0  0  0  0
  -85.6111   31.3896    0.5243 C   0  0  0  0  0  0  0  0  0  0  0  0
  -86.8213   31.6609   -0.1138 O   0  0  0  0  0  0  0  0  0  0  0  0
 43 44  1  0  0  0
 44 24  1  0  0  0
 24 25  2  0  0  0
 25 26  1  0  0  0
 26 27  2  0  0  0
 27 28  1  0  0  0
 28 29  2  0  0  0
 29  1  1  0  0  0
  1  3  1  0  0  0
  3  4  2  0  0  0
  4  5  1  0  0  0
  5  6  2  0  0  0
  6  7  1  0  0  0
  6  8  1  0  0  0
  8 10  1  0  0  0
 10 12  1  0  0  0
 12 13  2  0  0  0
 13 14  1  0  0  0
 14 15  2  0  0  0
 15 16  1  0  0  0
 16 17  2  0  0  0
 17 18  1  0  0  0
 18 19  2  0  0  0
 18 20  2  0  0  0
 18 21  1  0  0  0
 21 22  1  0  0  0
 21 23  1  0  0  0
  8  9  2  0  0  0
 26 30  1  0  0  0
 30 31  1  0  0  0
 31 32  1  0  0  0
 32 33  1  0  0  0
 33 34  1  0  0  0
 34 35  1  0  0  0
 33 36  1  0  0  0
 36 37  1  0  0  0
 37 38  1  0  0  0
 38 39  1  0  0  0
 39 40  1  0  0  0
 39 41  1  0  0  0
 41 42  1  0  0  0
 29 24  1  0  0  0
  9  3  1  0  0  0
 35 30  1  0  0  0
 42 36  1  0  0  0
 17 12  1  0  0  0
  1  2  1  0  0  0
 10 11  1  0  0  0
M  END
> <minimizedAffinity>
-7.32655

> <CNNscore>
0.0721612200

> <CNNaffinity>
6.4672155380

> <CNN_VS>
0.4666821659

> <CNNaffinity_variance>
0.0896875262

$$$$
[H]c1nc(N([H])c2c([H])c([H])c(N3C([H])([H])C([H])([H])C([H])(N4C([H])([H])C([H])([H])N(C([H])([H])[H])C([H])([H])C4([H])[H])C([H])([H])C3([H])[H])c([H])c2OC([H])([H])[H])nc(N([H])c2c([H])c([H])c([H])c([H])c2S(=O)(=O)C([H])(C([H])([H])[H])C([H])([H])[H])c1F


 44 48  0  0  0  0  0  0  0  0999 V2000
  -86.6669   34.0901   -3.8252 N   0  0  0  0  0  0  0  0  0  0  0  0
  -85.5762   34.1988   -3.8969 H   0  0  0  0  0  0  0  0  0  0  0  0
  -87.4577   35.1894   -4.1559 C   0  0  0  0  0  0  0  0  0  0  0  0
  -87.5762   36.2787   -3.4219 N   0  0  0  0  0  0  0  0  0  0  0  0
  -88.3678   37.2927   -3.8026 C   0  0  0  0  0  0  0  0  0  0  0  0
  -89.0859   37.2326   -4.9755 C   0  0  0  0  0  0  0  0  0  0  0  0
  -89.8817   38.2283   -5.3760 F   0  0  0  0  0  0  0  0  0  0  0  0
  -88.9516   36.0698   -5.7488 C   0  0  0  0  0  0  0  0  0  0  0  0
  -88.1597   35.1416   -5.2946 N   0  0  0  0  0  0  0  0  0  0  0  0
  -89.6982   35.9868   -6.9604 N   0  0  0  0  0  0  0  0  0  0  0  0
  -89.3144   36.5622   -7.7727 H   0  0  0  0  0  0  0  0  0  0  0  0
  -90.8497   35.2615   -7.2291 C   0  0  0  0  0  0  0  0  0  0  0  0
  -91.1415   34.0424   -6.6786 C   0  0  0  0  0  0  0  0  0  0  0  0
  -92.2890   33.3143   -6.9712 C   0  0  0  0  0  0  0  0  0  0  0  0
  -93.1936   33.8181   -7.8522 C   0  0  0  0  0  0  0  0  0  0  0  0
  -92.9095   35.0587   -8.4201 C   0  0  0  0  0  0  0  0  0  0  0  0
  -91.7901   35.7888   -8.1472 C   0  0  0  0  0  0  0  0  0  0  0  0
  -91.5185   37.3344   -8.9017 S   0  0  0  0  0  0  0  0  0  0  0  0
  -90.2452   37.3035   -9.7076 O   0  0  0  0  0  0  0  0  0  0  0  0
  -91.4838   38.4290   -7.8526 O   0  0  0  0  0  0  0  0  0  0  0  0
  -92.7976   37.7658  -10.0756 C   0  0  0  0  0  0  0  0  0  0  0  0
  -92.5190   37.2492  -11.4489 C   0  0  0  0  0  0  0  0  0  0  0  0
  -93.0416   39.2366   -9.9734 C   0  0  0  0  0  0  0  0  0  0  0  0
  -87.1060   32.5227   -2.0212 C   0  0  0  0  0  0  0  0  0  0  0  0
  -87.5757   31.3284   -1.5724 C   0  0  0  0  0  0  0  0  0  0  0  0
  -88.0894   30.3520   -2.4105 C   0  0  0  0  0  0  0  0  0  0  0  0
  -88.1086   30.6379   -3.7429 C   0  0  0  0  0  0  0  0  0  0  0  0
  -87.6214   31.8789   -4.2156 C   0  0  0  0  0  0  0  0  0  0  0  0
  -87.1190   32.8335   -3.3971 C   0  0  0  0  0  0  0  0  0  0  0  0
  -88.5666   29.0871   -1.9066 N   0  0  0  0  0  0  0  0  0  0  0  0
  -89.9183   28.8961   -1.4819 C   0  0  0  0  0  0  0  0  0  0  0  0
  -90.5656   27.6387   -1.9764 C   0  0  0  0  0  0  0  0  0  0  0  0
  -89.6469   26.4440   -1.9018 C   0  0  0  0  0  0  0  0  0  0  0  0
  -88.3385   26.7961   -1.2350 C   0  0  0  0  0  0  0  0  0  0  0  0
  -87.6574   27.9740   -1.8403 C   0  0  0  0  0  0  0  0  0  0  0  0
  -90.2915   25.4220   -1.1761 N   0  0  0  0  0  0  0  0  0  0  0  0
  -89.9935   24.0919   -1.5196 C   0  0  0  0  0  0  0  0  0  0  0  0
  -89.8177   23.1342   -0.3981 C   0  0  0  0  0  0  0  0  0  0  0  0
  -90.5203   23.4665    0.7984 N   0  0  0  0  0  0  0  0  0  0  0  0
  -91.8286   22.8909    0.8481 C   0  0  0  0  0  0  0  0  0  0  0  0
  -90.4716   24.8512    1.1385 C   0  0  0  0  0  0  0  0  0  0  0  0
  -91.0200   25.6886   -0.0303 C   0  0  0  0  0  0  0  0  0  0  0  0
  -85.6641   33.2793   -0.1545 C   0  0  0  0  0  0  0  0  0  0  0  0
  -86.5986   33.4816   -1.1699 O   0  0  0  0  0  0  0  0  0  0  0  0
 43 44  1  0  0  0
 44 24  1  0  0  0
 24 25  2  0  0  0
 25 26  1  0  0  0
 26 27  2  0  0  0
 27 28  1  0  0  0
 28 29  2  0  0  0
 29  1  1  0  0  0
  1  3  1  0  0  0
  3  4  2  0  0  0
  4  5  1  0  0  0
  5  6  2  0  0  0
  6  7  1  0  0  0
  6  8  1  0  0  0
  8 10  1  0  0  0
 10 12  1  0  0  0
 12 13  2  0  0  0
 13 14  1  0  0  0
 14 15  2  0  0  0
 15 16  1  0  0  0
 16 17  2  0  0  0
 17 18  1  0  0  0
 18 19  2  0  0  0
 18 20  2  0  0  0
 18 21  1  0  0  0
 21 22  1  0  0  0
 21 23  1  0  0  0
  8  9  2  0  0  0
 26 30  1  0  0  0
 30 31  1  0  0  0
 31 32  1  0  0  0
 32 33  1  0  0  0
 33 34  1  0  0  0
 34 35  1  0  0  0
 33 36  1  0  0  0
 36 37  1  0  0  0
 37 38  1  0  0  0
 38 39  1  0  0  0
 39 40  1  0  0  0
 39 41  1  0  0  0
 41 42  1  0  0  0
 29 24  1  0  0  0
  9  3  1  0  0  0
 35 30  1  0  0  0
 42 36  1  0  0  0
 17 12  1  0  0  0
  1  2  1  0  0  0
 10 11  1  0  0  0
M  END
> <minimizedAffinity>
-7.16143

> <CNNscore>
0.0658607036

> <CNNaffinity>
6.2079401016

> <CNN_VS>
0.4088593125

> <CNNaffinity_variance>
0.4021092355

$$$$
[H]c1nc(N([H])c2c([H])c([H])c(N3C([H])([H])C([H])([H])C([H])(N4C([H])([H])C([H])([H])N(C([H])([H])[H])C([H])([H])C4([H])[H])C([H])([H])C3([H])[H])c([H])c2OC([H])([H])[H])nc(N([H])c2c([H])c([H])c([H])c([H])c2S(=O)(=O)C([H])(C([H])([H])[H])C([H])([H])[H])c1F


 44 48  0  0  0  0  0  0  0  0999 V2000
  -86.9506   33.4795   -3.5572 N   0  0  0  0  0  0  0  0  0  0  0  0
  -85.9133   33.5544   -3.9106 H   0  0  0  0  0  0  0  0  0  0  0  0
  -87.7850   34.5816   -3.7377 C   0  0  0  0  0  0  0  0  0  0  0  0
  -89.0427   34.6449   -3.3460 N   0  0  0  0  0  0  0  0  0  0  0  0
  -89.7869   35.7393   -3.5663 C   0  0  0  0  0  0  0  0  0  0  0  0
  -89.2631   36.8377   -4.2097 C   0  0  0  0  0  0  0  0  0  0  0  0
  -89.9835   37.9387   -4.4419 F   0  0  0  0  0  0  0  0  0  0  0  0
  -87.9241   36.7598   -4.6211 C   0  0  0  0  0  0  0  0  0  0  0  0
  -87.2856   35.6552   -4.3619 N   0  0  0  0  0  0  0  0  0  0  0  0
  -87.3702   37.8844   -5.2999 N   0  0  0  0  0  0  0  0  0  0  0  0
  -86.8888   38.6025   -4.6748 H   0  0  0  0  0  0  0  0  0  0  0  0
  -87.3687   38.1720   -6.6570 C   0  0  0  0  0  0  0  0  0  0  0  0
  -88.3900   37.8614   -7.5141 C   0  0  0  0  0  0  0  0  0  0  0  0
  -88.3689   38.1354   -8.8768 C   0  0  0  0  0  0  0  0  0  0  0  0
  -87.2829   38.7483   -9.4185 C   0  0  0  0  0  0  0  0  0  0  0  0
  -86.2356   39.0706   -8.5572 C   0  0  0  0  0  0  0  0  0  0  0  0
  -86.2361   38.8104   -7.2182 C   0  0  0  0  0  0  0  0  0  0  0  0
  -84.8830   39.2528   -6.2157 S   0  0  0  0  0  0  0  0  0  0  0  0
  -84.5275   38.1175   -5.2903 O   0  0  0  0  0  0  0  0  0  0  0  0
  -85.1972   40.5196   -5.4433 O   0  0  0  0  0  0  0  0  0  0  0  0
  -83.3949   39.5627   -7.1590 C   0  0  0  0  0  0  0  0  0  0  0  0
  -82.1868   38.9217   -6.5589 C   0  0  0  0  0  0  0  0  0  0  0  0
  -83.2969   41.0348   -7.3972 C   0  0  0  0  0  0  0  0  0  0  0  0
  -87.0776   32.0805   -1.5746 C   0  0  0  0  0  0  0  0  0  0  0  0
  -87.4384   30.9243   -0.9570 C   0  0  0  0  0  0  0  0  0  0  0  0
  -88.0315   29.8627   -1.6211 C   0  0  0  0  0  0  0  0  0  0  0  0
  -88.2479   30.0212   -2.9573 C   0  0  0  0  0  0  0  0  0  0  0  0
  -87.8747   31.2219   -3.6052 C   0  0  0  0  0  0  0  0  0  0  0  0
  -87.2948   32.2598   -2.9569 C   0  0  0  0  0  0  0  0  0  0  0  0
  -88.3896   28.6413   -0.9417 N   0  0  0  0  0  0  0  0  0  0  0  0
  -88.4132   28.5402    0.4842 C   0  0  0  0  0  0  0  0  0  0  0  0
  -89.6210   27.8583    1.0506 C   0  0  0  0  0  0  0  0  0  0  0  0
  -90.0151   26.6297    0.2683 C   0  0  0  0  0  0  0  0  0  0  0  0
  -89.0178   26.3297   -0.8254 C   0  0  0  0  0  0  0  0  0  0  0  0
  -88.7487   27.4874   -1.7225 C   0  0  0  0  0  0  0  0  0  0  0  0
  -90.0947   25.5357    1.1535 N   0  0  0  0  0  0  0  0  0  0  0  0
  -89.9576   25.7983    2.5276 C   0  0  0  0  0  0  0  0  0  0  0  0
  -90.8732   25.0704    3.4428 C   0  0  0  0  0  0  0  0  0  0  0  0
  -91.3433   23.8139    2.9567 N   0  0  0  0  0  0  0  0  0  0  0  0
  -90.5023   22.7233    3.3423 C   0  0  0  0  0  0  0  0  0  0  0  0
  -91.7055   23.8205    1.5768 C   0  0  0  0  0  0  0  0  0  0  0  0
  -90.5060   24.2838    0.7313 C   0  0  0  0  0  0  0  0  0  0  0  0
  -85.1472   33.2241   -0.5251 C   0  0  0  0  0  0  0  0  0  0  0  0
  -86.4883   33.1258   -0.8951 O   0  0  0  0  0  0  0  0  0  0  0  0
 43 44  1  0  0  0
 44 24  1  0  0  0
 24 25  2  0  0  0
 25 26  1  0  0  0
 26 27  2  0  0  0
 27 28  1  0  0  0
 28 29  2  0  0  0
 29  1  1  0  0  0
  1  3  1  0  0  0
  3  4  2  0  0  0
  4  5  1  0  0  0
  5  6  2  0  0  0
  6  7  1  0  0  0
  6  8  1  0  0  0
  8 10  1  0  0  0
 10 12  1  0  0  0
 12 13  2  0  0  0
 13 14  1  0  0  0
 14 15  2  0  0  0
 15 16  1  0  0  0
 16 17  2  0  0  0
 17 18  1  0  0  0
 18 19  2  0  0  0
 18 20  2  0  0  0
 18 21  1  0  0  0
 21 22  1  0  0  0
 21 23  1  0  0  0
  8  9  2  0  0  0
 26 30  1  0  0  0
 30 31  1  0  0  0
 31 32  1  0  0  0
 32 33  1  0  0  0
 33 34  1  0  0  0
 34 35  1  0  0  0
 33 36  1  0  0  0
 36 37  1  0  0  0
 37 38  1  0  0  0
 38 39  1  0  0  0
 39 40  1  0  0  0
 39 41  1  0  0  0
 41 42  1  0  0  0
 29 24  1  0  0  0
  9  3  1  0  0  0
 35 30  1  0  0  0
 42 36  1  0  0  0
 17 12  1  0  0  0
  1  2  1  0  0  0
 10 11  1  0  0  0
M  END
> <minimizedAffinity>
-8.17656

> <CNNscore>
0.0552124865

> <CNNaffinity>
6.3719458580

> <CNN_VS>
0.3518109620

> <CNNaffinity_variance>
0.2380544245

$$$$
[H]c1nc(N([H])c2c([H])c([H])c(N3C([H])([H])C([H])([H])C([H])(N4C([H])([H])C([H])([H])N(C([H])([H])[H])C([H])([H])C4([H])[H])C([H])([H])C3([H])[H])c([H])c2OC([H])([H])[H])nc(N([H])c2c([H])c([H])c([H])c([H])c2S(=O)(=O)C([H])(C([H])([H])[H])C([H])([H])[H])c1F


 44 48  0  0  0  0  0  0  0  0999 V2000
  -88.1721   31.3069   -0.2859 N   0  0  0  0  0  0  0  0  0  0  0  0
  -88.2040   31.5767    0.7784 H   0  0  0  0  0  0  0  0  0  0  0  0
  -88.1726   29.9531   -0.6186 C   0  0  0  0  0  0  0  0  0  0  0  0
  -87.1259   29.2888   -1.0684 N   0  0  0  0  0  0  0  0  0  0  0  0
  -87.2080   27.9861   -1.3783 C   0  0  0  0  0  0  0  0  0  0  0  0
  -88.3898   27.2947   -1.2371 C   0  0  0  0  0  0  0  0  0  0  0  0
  -88.4976   25.9978   -1.5398 F   0  0  0  0  0  0  0  0  0  0  0  0
  -89.4965   28.0109   -0.7570 C   0  0  0  0  0  0  0  0  0  0  0  0
  -89.3166   29.2712   -0.4845 N   0  0  0  0  0  0  0  0  0  0  0  0
  -90.7311   27.3121   -0.6167 N   0  0  0  0  0  0  0  0  0  0  0  0
  -91.3142   27.5831    0.2347 H   0  0  0  0  0  0  0  0  0  0  0  0
  -91.2786   26.3332   -1.4330 C   0  0  0  0  0  0  0  0  0  0  0  0
  -91.2211   24.9900   -1.1744 C   0  0  0  0  0  0  0  0  0  0  0  0
  -91.7549   24.0160   -2.0104 C   0  0  0  0  0  0  0  0  0  0  0  0
  -92.3776   24.3900   -3.1597 C   0  0  0  0  0  0  0  0  0  0  0  0
  -92.4437   25.7545   -3.4354 C   0  0  0  0  0  0  0  0  0  0  0  0
  -91.9265   26.7258   -2.6294 C   0  0  0  0  0  0  0  0  0  0  0  0
  -92.0590   28.4097   -3.0518 S   0  0  0  0  0  0  0  0  0  0  0  0
  -90.7266   28.9350   -3.5213 O   0  0  0  0  0  0  0  0  0  0  0  0
  -92.5832   29.2047   -1.8714 O   0  0  0  0  0  0  0  0  0  0  0  0
  -93.1757   28.6943   -4.4201 C   0  0  0  0  0  0  0  0  0  0  0  0
  -92.6327   29.6657   -5.4161 C   0  0  0  0  0  0  0  0  0  0  0  0
  -94.5202   29.0253   -3.8582 C   0  0  0  0  0  0  0  0  0  0  0  0
  -86.9110   33.0643   -1.3929 C   0  0  0  0  0  0  0  0  0  0  0  0
  -86.8301   34.0889   -2.2828 C   0  0  0  0  0  0  0  0  0  0  0  0
  -87.9103   34.5337   -3.0277 C   0  0  0  0  0  0  0  0  0  0  0  0
  -89.0951   33.8892   -2.8321 C   0  0  0  0  0  0  0  0  0  0  0  0
  -89.1852   32.8224   -1.9076 C   0  0  0  0  0  0  0  0  0  0  0  0
  -88.1300   32.3872   -1.1791 C   0  0  0  0  0  0  0  0  0  0  0  0
  -87.7978   35.6343   -3.9537 N   0  0  0  0  0  0  0  0  0  0  0  0
  -87.5714   35.4353   -5.3513 C   0  0  0  0  0  0  0  0  0  0  0  0
  -88.4335   36.2614   -6.2562 C   0  0  0  0  0  0  0  0  0  0  0  0
  -88.5785   37.6858   -5.7799 C   0  0  0  0  0  0  0  0  0  0  0  0
  -87.7184   37.9514   -4.5673 C   0  0  0  0  0  0  0  0  0  0  0  0
  -87.9307   36.9791   -3.4596 C   0  0  0  0  0  0  0  0  0  0  0  0
  -88.2068   38.5533   -6.8268 N   0  0  0  0  0  0  0  0  0  0  0  0
  -88.4355   39.9283   -6.6456 C   0  0  0  0  0  0  0  0  0  0  0  0
  -87.3665   40.8511   -7.1056 C   0  0  0  0  0  0  0  0  0  0  0  0
  -86.5514   40.3537   -8.1659 N   0  0  0  0  0  0  0  0  0  0  0  0
  -87.0549   40.7011   -9.4586 C   0  0  0  0  0  0  0  0  0  0  0  0
  -86.1831   38.9826   -8.0251 C   0  0  0  0  0  0  0  0  0  0  0  0
  -87.4504   38.1186   -7.9009 C   0  0  0  0  0  0  0  0  0  0  0  0
  -84.5147   33.1073   -0.7669 C   0  0  0  0  0  0  0  0  0  0  0  0
  -85.8233   32.6365   -0.6610 O   0  0  0  0  0  0  0  0  0  0  0  0
 43 44  1  0  0  0
 44 24  1  0  0  0
 24 25  2  0  0  0
 25 26  1  0  0  0
 26 27  2  0  0  0
 27 28  1  0  0  0
 28 29  2  0  0  0
 29  1  1  0  0  0
  1  3  1  0  0  0
  3  4  2  0  0  0
  4  5  1  0  0  0
  5  6  2  0  0  0
  6  7  1  0  0  0
  6  8  1  0  0  0
  8 10  1  0  0  0
 10 12  1  0  0  0
 12 13  2  0  0  0
 13 14  1  0  0  0
 14 15  2  0  0  0
 15 16  1  0  0  0
 16 17  2  0  0  0
 17 18  1  0  0  0
 18 19  2  0  0  0
 18 20  2  0  0  0
 18 21  1  0  0  0
 21 22  1  0  0  0
 21 23  1  0  0  0
  8  9  2  0  0  0
 26 30  1  0  0  0
 30 31  1  0  0  0
 31 32  1  0  0  0
 32 33  1  0  0  0
 33 34  1  0  0  0
 34 35  1  0  0  0
 33 36  1  0  0  0
 36 37  1  0  0  0
 37 38  1  0  0  0
 38 39  1  0  0  0
 39 40  1  0  0  0
 39 41  1  0  0  0
 41 42  1  0  0  0
 29 24  1  0  0  0
  9  3  1  0  0  0
 35 30  1  0  0  0
 42 36  1  0  0  0
 17 12  1  0  0  0
  1  2  1  0  0  0
 10 11  1  0  0  0
M  END
> <minimizedAffinity>
-7.50610

> <CNNscore>
0.0367061496

> <CNNaffinity>
6.0608892441

> <CNN_VS>
0.2224719077

> <CNNaffinity_variance>
0.7190587521

$$$$
[H]Oc1c([H])c([H])c(-c2c([H])nc([H])c(-c3c([H])c([H])c4nc([H])c([H])c([H])c4c3[H])c2[H])c([H])c1[H]


 24 27  0  0  0  0  0  0  0  0999 V2000
  -84.1282   31.4036    0.4094 C   0  0  0  0  0  0  0  0  0  0  0  0
  -83.0799   32.3080    0.3802 C   0  0  0  0  0  0  0  0  0  0  0  0
  -83.2534   33.4331   -0.3333 N   0  0  0  0  0  0  0  0  0  0  0  0
  -84.3872   33.7032   -1.0064 C   0  0  0  0  0  0  0  0  0  0  0  0
  -85.4600   32.8305   -1.0082 C   0  0  0  0  0  0  0  0  0  0  0  0
  -85.3127   31.6720   -0.2868 C   0  0  0  0  0  0  0  0  0  0  0  0
  -86.6801   33.1586   -1.7513 C   0  0  0  0  0  0  0  0  0  0  0  0
  -87.9166   32.8506   -1.2189 C   0  0  0  0  0  0  0  0  0  0  0  0
  -89.0817   33.1450   -1.8429 C   0  0  0  0  0  0  0  0  0  0  0  0
  -89.0420   33.7845   -3.0733 C   0  0  0  0  0  0  0  0  0  0  0  0
  -90.2238   34.0630   -3.6553 N   0  0  0  0  0  0  0  0  0  0  0  0
  -90.2432   34.6810   -4.8358 C   0  0  0  0  0  0  0  0  0  0  0  0
  -89.0610   35.0179   -5.4267 C   0  0  0  0  0  0  0  0  0  0  0  0
  -87.8213   34.7500   -4.8622 C   0  0  0  0  0  0  0  0  0  0  0  0
  -87.8156   34.1064   -3.6348 C   0  0  0  0  0  0  0  0  0  0  0  0
  -86.6443   33.7943   -2.9762 C   0  0  0  0  0  0  0  0  0  0  0  0
  -83.2816   26.7428    3.3485 O   0  0  0  0  0  0  0  0  0  0  0  0
  -83.5225   27.9104    2.6142 C   0  0  0  0  0  0  0  0  0  0  0  0
  -84.8099   28.2725    2.2866 C   0  0  0  0  0  0  0  0  0  0  0  0
  -85.0207   29.4179    1.5678 C   0  0  0  0  0  0  0  0  0  0  0  0
  -83.9444   30.1834    1.1877 C   0  0  0  0  0  0  0  0  0  0  0  0
  -82.6586   29.8112    1.5213 C   0  0  0  0  0  0  0  0  0  0  0  0
  -82.4461   28.6720    2.2362 C   0  0  0  0  0  0  0  0  0  0  0  0
  -82.3562   26.4564    3.5986 H   0  0  0  0  0  0  0  0  0  0  0  0
 17 18  1  0  0  0
 18 19  2  0  0  0
 19 20  1  0  0  0
 20 21  2  0  0  0
 21 22  1  0  0  0
 22 23  2  0  0  0
 21  1  1  0  0  0
  1  2  2  0  0  0
  2  3  1  0  0  0
  3  4  2  0  0  0
  4  5  1  0  0  0
  5  6  2  0  0  0
  5  7  1  0  0  0
  7  8  2  0  0  0
  8  9  1  0  0  0
  9 10  2  0  0  0
 10 11  1  0  0  0
 11 12  2  0  0  0
 12 13  1  0  0  0
 13 14  2  0  0  0
 14 15  1  0  0  0
 15 16  2  0  0  0
 23 18  1  0  0  0
  6  1  1  0  0  0
 16  7  1  0  0  0
 15 10  1  0  0  0
 17 24  1  0  0  0
M  END
> <minimizedAffinity>
-10.50335

> <CNNscore>
0.9718672037

> <CNNaffinity>
6.7560019493

> <CNN_VS>
6.5659365654

> <CNNaffinity_variance>
0.0349875502

$$$$
[H]Oc1c([H])c([H])c(-c2c([H])nc([H])c(-c3c([H])c([H])c4nc([H])c([H])c([H])c4c3[H])c2[H])c([H])c1[H]


 24 27  0  0  0  0  0  0  0  0999 V2000
  -84.3638   31.4453    0.3082 C   0  0  0  0  0  0  0  0  0  0  0  0
  -83.3585   32.3971    0.2752 C   0  0  0  0  0  0  0  0  0  0  0  0
  -83.5754   33.5007   -0.4598 N   0  0  0  0  0  0  0  0  0  0  0  0
  -84.7123   33.7060   -1.1504 C   0  0  0  0  0  0  0  0  0  0  0  0
  -85.7432   32.7843   -1.1492 C   0  0  0  0  0  0  0  0  0  0  0  0
  -85.5510   31.6463   -0.4061 C   0  0  0  0  0  0  0  0  0  0  0  0
  -86.9681   33.0423   -1.9117 C   0  0  0  0  0  0  0  0  0  0  0  0
  -87.2421   34.3168   -2.3674 C   0  0  0  0  0  0  0  0  0  0  0  0
  -88.3439   34.6185   -3.0945 C   0  0  0  0  0  0  0  0  0  0  0  0
  -89.2444   33.6086   -3.4004 C   0  0  0  0  0  0  0  0  0  0  0  0
  -90.3227   33.9520   -4.1298 N   0  0  0  0  0  0  0  0  0  0  0  0
  -91.2171   33.0194   -4.4561 C   0  0  0  0  0  0  0  0  0  0  0  0
  -91.0164   31.7355   -4.0419 C   0  0  0  0  0  0  0  0  0  0  0  0
  -89.9197   31.3382   -3.2892 C   0  0  0  0  0  0  0  0  0  0  0  0
  -88.9977   32.3181   -2.9565 C   0  0  0  0  0  0  0  0  0  0  0  0
  -87.8667   32.0399   -2.2173 C   0  0  0  0  0  0  0  0  0  0  0  0
  -83.3374   26.8784    3.3360 O   0  0  0  0  0  0  0  0  0  0  0  0
  -83.6234   28.0213    2.5795 C   0  0  0  0  0  0  0  0  0  0  0  0
  -84.9237   28.3261    2.2445 C   0  0  0  0  0  0  0  0  0  0  0  0
  -85.1786   29.4484    1.5040 C   0  0  0  0  0  0  0  0  0  0  0  0
  -84.1329   30.2484    1.1097 C   0  0  0  0  0  0  0  0  0  0  0  0
  -82.8338   29.9335    1.4508 C   0  0  0  0  0  0  0  0  0  0  0  0
  -82.5774   28.8174    2.1874 C   0  0  0  0  0  0  0  0  0  0  0  0
  -82.4017   26.6335    3.5919 H   0  0  0  0  0  0  0  0  0  0  0  0
 17 18  1  0  0  0
 18 19  2  0  0  0
 19 20  1  0  0  0
 20 21  2  0  0  0
 21 22  1  0  0  0
 22 23  2  0  0  0
 21  1  1  0  0  0
  1  2  2  0  0  0
  2  3  1  0  0  0
  3  4  2  0  0  0
  4  5  1  0  0  0
  5  6  2  0  0  0
  5  7  1  0  0  0
  7  8  2  0  0  0
  8  9  1  0  0  0
  9 10  2  0  0  0
 10 11  1  0  0  0
 11 12  2  0  0  0
 12 13  1  0  0  0
 13 14  2  0  0  0
 14 15  1  0  0  0
 15 16  2  0  0  0
 23 18  1  0  0  0
  6  1  1  0  0  0
 16  7  1  0  0  0
 15 10  1  0  0  0
 17 24  1  0  0  0
M  END
> <minimizedAffinity>
-10.01571

> <CNNscore>
0.9261390567

> <CNNaffinity>
6.5895280838

> <CNN_VS>
6.1028194427

> <CNNaffinity_variance>
0.0802303180

$$$$
[H]Oc1c([H])c([H])c(-c2c([H])nc([H])c(-c3c([H])c([H])c4nc([H])c([H])c([H])c4c3[H])c2[H])c([H])c1[H]


 24 27  0  0  0  0  0  0  0  0999 V2000
  -84.4646   31.3643    0.2561 C   0  0  0  0  0  0  0  0  0  0  0  0
  -83.5430   32.3972    0.2180 C   0  0  0  0  0  0  0  0  0  0  0  0
  -83.8565   33.4792   -0.5142 N   0  0  0  0  0  0  0  0  0  0  0  0
  -85.0109   33.5888   -1.1974 C   0  0  0  0  0  0  0  0  0  0  0  0
  -85.9607   32.5837   -1.1910 C   0  0  0  0  0  0  0  0  0  0  0  0
  -85.6689   31.4653   -0.4505 C   0  0  0  0  0  0  0  0  0  0  0  0
  -87.2078   32.7385   -1.9455 C   0  0  0  0  0  0  0  0  0  0  0  0
  -87.6584   33.9994   -2.2834 C   0  0  0  0  0  0  0  0  0  0  0  0
  -88.7898   34.2112   -2.9966 C   0  0  0  0  0  0  0  0  0  0  0  0
  -89.5373   33.1184   -3.4109 C   0  0  0  0  0  0  0  0  0  0  0  0
  -90.6515   33.3748   -4.1221 N   0  0  0  0  0  0  0  0  0  0  0  0
  -91.4038   32.3612   -4.5493 C   0  0  0  0  0  0  0  0  0  0  0  0
  -91.0243   31.0847   -4.2548 C   0  0  0  0  0  0  0  0  0  0  0  0
  -89.8844   30.7756   -3.5253 C   0  0  0  0  0  0  0  0  0  0  0  0
  -89.1115   31.8391   -3.0867 C   0  0  0  0  0  0  0  0  0  0  0  0
  -87.9545   31.6534   -2.3589 C   0  0  0  0  0  0  0  0  0  0  0  0
  -83.3257   26.8611    3.3387 O   0  0  0  0  0  0  0  0  0  0  0  0
  -83.5835   27.9971    2.5619 C   0  0  0  0  0  0  0  0  0  0  0  0
  -82.5576   28.8436    2.2059 C   0  0  0  0  0  0  0  0  0  0  0  0
  -82.8340   29.9481    1.4465 C   0  0  0  0  0  0  0  0  0  0  0  0
  -84.1289   30.1904    1.0546 C   0  0  0  0  0  0  0  0  0  0  0  0
  -85.1493   29.3356    1.4170 C   0  0  0  0  0  0  0  0  0  0  0  0
  -84.8770   28.2361    2.1726 C   0  0  0  0  0  0  0  0  0  0  0  0
  -84.0529   26.2306    3.6120 H   0  0  0  0  0  0  0  0  0  0  0  0
 17 18  1  0  0  0
 18 19  2  0  0  0
 19 20  1  0  0  0
 20 21  2  0  0  0
 21 22  1  0  0  0
 22 23  2  0  0  0
 21  1  1  0  0  0
  1  2  2  0  0  0
  2  3  1  0  0  0
  3  4  2  0  0  0
  4  5  1  0  0  0
  5  6  2  0  0  0
  5  7  1  0  0  0
  7  8  2  0  0  0
  8  9  1  0  0  0
  9 10  2  0  0  0
 10 11  1  0  0  0
 11 12  2  0  0  0
 12 13  1  0  0  0
 13 14  2  0  0  0
 14 15  1  0  0  0
 15 16  2  0  0  0
 23 18  1  0  0  0
  6  1  1  0  0  0
 16  7  1  0  0  0
 15 10  1  0  0  0
 17 24  1  0  0  0
M  END
> <minimizedAffinity>
-9.88661

> <CNNscore>
0.8991327286

> <CNNaffinity>
6.5371809006

> <CNN_VS>
5.8777933121

> <CNNaffinity_variance>
0.0833130106

$$$$
[H]Oc1c([H])c([H])c(-c2c([H])nc([H])c(-c3c([H])c([H])c4nc([H])c([H])c([H])c4c3[H])c2[H])c([H])c1[H]


 24 27  0  0  0  0  0  0  0  0999 V2000
  -85.2357   31.0373    0.3788 C   0  0  0  0  0  0  0  0  0  0  0  0
  -84.5759   32.2534    0.3213 C   0  0  0  0  0  0  0  0  0  0  0  0
  -85.1688   33.2471   -0.3614 N   0  0  0  0  0  0  0  0  0  0  0  0
  -86.3561   33.1017   -0.9784 C   0  0  0  0  0  0  0  0  0  0  0  0
  -87.0515   31.9068   -0.9502 C   0  0  0  0  0  0  0  0  0  0  0  0
  -86.4710   30.8726   -0.2590 C   0  0  0  0  0  0  0  0  0  0  0  0
  -88.3433   31.7855   -1.6321 C   0  0  0  0  0  0  0  0  0  0  0  0
  -89.3232   30.9622   -1.1133 C   0  0  0  0  0  0  0  0  0  0  0  0
  -90.5443   30.8214   -1.6815 C   0  0  0  0  0  0  0  0  0  0  0  0
  -90.8334   31.5318   -2.8374 C   0  0  0  0  0  0  0  0  0  0  0  0
  -92.0610   31.3660   -3.3652 N   0  0  0  0  0  0  0  0  0  0  0  0
  -92.3930   32.0288   -4.4727 C   0  0  0  0  0  0  0  0  0  0  0  0
  -91.4776   32.8619   -5.0455 C   0  0  0  0  0  0  0  0  0  0  0  0
  -90.2022   33.0621   -4.5351 C   0  0  0  0  0  0  0  0  0  0  0  0
  -89.8699   32.3664   -3.3834 C   0  0  0  0  0  0  0  0  0  0  0  0
  -88.6342   32.4903   -2.7829 C   0  0  0  0  0  0  0  0  0  0  0  0
  -82.9275   26.8630    3.2643 O   0  0  0  0  0  0  0  0  0  0  0  0
  -83.4811   27.9228    2.5357 C   0  0  0  0  0  0  0  0  0  0  0  0
  -82.6967   28.9874    2.1519 C   0  0  0  0  0  0  0  0  0  0  0  0
  -83.2603   30.0119    1.4408 C   0  0  0  0  0  0  0  0  0  0  0  0
  -84.5965   29.9581    1.1239 C   0  0  0  0  0  0  0  0  0  0  0  0
  -85.3732   28.8866    1.5136 C   0  0  0  0  0  0  0  0  0  0  0  0
  -84.8151   27.8660    2.2214 C   0  0  0  0  0  0  0  0  0  0  0  0
  -83.4752   26.0784    3.5564 H   0  0  0  0  0  0  0  0  0  0  0  0
 17 18  1  0  0  0
 18 19  2  0  0  0
 19 20  1  0  0  0
 20 21  2  0  0  0
 21 22  1  0  0  0
 22 23  2  0  0  0
 21  1  1  0  0  0
  1  2  2  0  0  0
  2  3  1  0  0  0
  3  4  2  0  0  0
  4  5  1  0  0  0
  5  6  2  0  0  0
  5  7  1  0  0  0
  7  8  2  0  0  0
  8  9  1  0  0  0
  9 10  2  0  0  0
 10 11  1  0  0  0
 11 12  2  0  0  0
 12 13  1  0  0  0
 13 14  2  0  0  0
 14 15  1  0  0  0
 15 16  2  0  0  0
 23 18  1  0  0  0
  6  1  1  0  0  0
 16  7  1  0  0  0
 15 10  1  0  0  0
 17 24  1  0  0  0
M  END
> <minimizedAffinity>
-9.64167

> <CNNscore>
0.5691033006

> <CNNaffinity>
6.2636895180

> <CNN_VS>
3.5646862984

> <CNNaffinity_variance>
0.2295585871

$$$$
[H]Oc1c([H])c([H])c(-c2c([H])nc([H])c(-c3c([H])c([H])c4nc([H])c([H])c([H])c4c3[H])c2[H])c([H])c1[H]


 24 27  0  0  0  0  0  0  0  0999 V2000
  -87.9147   34.4419   -2.8207 C   0  0  0  0  0  0  0  0  0  0  0  0
  -89.1991   33.9969   -2.5560 C   0  0  0  0  0  0  0  0  0  0  0  0
  -89.3361   32.9913   -1.6756 N   0  0  0  0  0  0  0  0  0  0  0  0
  -88.2889   32.4145   -1.0574 C   0  0  0  0  0  0  0  0  0  0  0  0
  -86.9885   32.8233   -1.2904 C   0  0  0  0  0  0  0  0  0  0  0  0
  -86.8167   33.8503   -2.1849 C   0  0  0  0  0  0  0  0  0  0  0  0
  -85.8725   32.1732   -0.5974 C   0  0  0  0  0  0  0  0  0  0  0  0
  -84.6233   32.7621   -0.5964 C   0  0  0  0  0  0  0  0  0  0  0  0
  -83.5562   32.2256    0.0415 C   0  0  0  0  0  0  0  0  0  0  0  0
  -83.7146   31.0302    0.7274 C   0  0  0  0  0  0  0  0  0  0  0  0
  -82.6290   30.5358    1.3517 N   0  0  0  0  0  0  0  0  0  0  0  0
  -82.7269   29.3926    2.0296 C   0  0  0  0  0  0  0  0  0  0  0  0
  -83.9292   28.7502    2.0747 C   0  0  0  0  0  0  0  0  0  0  0  0
  -85.0726   29.2242    1.4463 C   0  0  0  0  0  0  0  0  0  0  0  0
  -84.9566   30.4137    0.7444 C   0  0  0  0  0  0  0  0  0  0  0  0
  -86.0263   30.9834    0.0855 C   0  0  0  0  0  0  0  0  0  0  0  0
  -87.3948   38.7201   -6.3569 O   0  0  0  0  0  0  0  0  0  0  0  0
  -87.5178   37.6276   -5.4899 C   0  0  0  0  0  0  0  0  0  0  0  0
  -87.4117   36.3421   -5.9716 C   0  0  0  0  0  0  0  0  0  0  0  0
  -87.5359   35.2901   -5.1051 C   0  0  0  0  0  0  0  0  0  0  0  0
  -87.7635   35.5372   -3.7724 C   0  0  0  0  0  0  0  0  0  0  0  0
  -87.8682   36.8293   -3.3004 C   0  0  0  0  0  0  0  0  0  0  0  0
  -87.7453   37.8777   -4.1604 C   0  0  0  0  0  0  0  0  0  0  0  0
  -87.4689   39.6638   -6.0330 H   0  0  0  0  0  0  0  0  0  0  0  0
 17 18  1  0  0  0
 18 19  2  0  0  0
 19 20  1  0  0  0
 20 21  2  0  0  0
 21 22  1  0  0  0
 22 23  2  0  0  0
 21  1  1  0  0  0
  1  2  2  0  0  0
  2  3  1  0  0  0
  3  4  2  0  0  0
  4  5  1  0  0  0
  5  6  2  0  0  0
  5  7  1  0  0  0
  7  8  2  0  0  0
  8  9  1  0  0  0
  9 10  2  0  0  0
 10 11  1  0  0  0
 11 12  2  0  0  0
 12 13  1  0  0  0
 13 14  2  0  0  0
 14 15  1  0  0  0
 15 16  2  0  0  0
 23 18  1  0  0  0
  6  1  1  0  0  0
 16  7  1  0  0  0
 15 10  1  0  0  0
 17 24  1  0  0  0
M  END
> <minimizedAffinity>
-9.17562

> <CNNscore>
0.4754792154

> <CNNaffinity>
5.8055753708

> <CNN_VS>
2.7604303360

> <CNNaffinity_variance>
0.1122575179

$$$$
[H]Oc1c([H])c([H])c(-c2c([H])nc([H])c(-c3c([H])c([H])c4nc([H])c([H])c([H])c4c3[H])c2[H])c([H])c1[H]


 24 27  0  0  0  0  0  0  0  0999 V2000
  -85.0126   28.9961    1.1312 C   0  0  0  0  0  0  0  0  0  0  0  0
  -84.3119   28.2505    2.0643 C   0  0  0  0  0  0  0  0  0  0  0  0
  -84.8147   27.0510    2.4015 N   0  0  0  0  0  0  0  0  0  0  0  0
  -85.9525   26.5622    1.8743 C   0  0  0  0  0  0  0  0  0  0  0  0
  -86.6872   27.2702    0.9409 C   0  0  0  0  0  0  0  0  0  0  0  0
  -86.1978   28.4995    0.5757 C   0  0  0  0  0  0  0  0  0  0  0  0
  -87.9211   26.7055    0.3867 C   0  0  0  0  0  0  0  0  0  0  0  0
  -88.2199   26.8784   -0.9504 C   0  0  0  0  0  0  0  0  0  0  0  0
  -89.3312   26.3654   -1.5296 C   0  0  0  0  0  0  0  0  0  0  0  0
  -90.2159   25.6316   -0.7529 C   0  0  0  0  0  0  0  0  0  0  0  0
  -91.3046   25.1356   -1.3708 N   0  0  0  0  0  0  0  0  0  0  0  0
  -92.1847   24.4188   -0.6724 C   0  0  0  0  0  0  0  0  0  0  0  0
  -91.9593   24.2045    0.6556 C   0  0  0  0  0  0  0  0  0  0  0  0
  -90.8513   24.6968    1.3316 C   0  0  0  0  0  0  0  0  0  0  0  0
  -89.9443   25.4409    0.5935 C   0  0  0  0  0  0  0  0  0  0  0  0
  -88.8042   25.9754    1.1568 C   0  0  0  0  0  0  0  0  0  0  0  0
  -83.0474   33.9933   -0.3669 O   0  0  0  0  0  0  0  0  0  0  0  0
  -83.5154   32.7320    0.0210 C   0  0  0  0  0  0  0  0  0  0  0  0
  -82.6499   31.8023    0.5527 C   0  0  0  0  0  0  0  0  0  0  0  0
  -83.1305   30.5759    0.9242 C   0  0  0  0  0  0  0  0  0  0  0  0
  -84.4661   30.2966    0.7595 C   0  0  0  0  0  0  0  0  0  0  0  0
  -85.3244   31.2354    0.2257 C   0  0  0  0  0  0  0  0  0  0  0  0
  -84.8489   32.4563   -0.1449 C   0  0  0  0  0  0  0  0  0  0  0  0
  -83.6546   34.6862   -0.7568 H   0  0  0  0  0  0  0  0  0  0  0  0
 17 18  1  0  0  0
 18 19  2  0  0  0
 19 20  1  0  0  0
 20 21  2  0  0  0
 21 22  1  0  0  0
 22 23  2  0  0  0
 21  1  1  0  0  0
  1  2  2  0  0  0
  2  3  1  0  0  0
  3  4  2  0  0  0
  4  5  1  0  0  0
  5  6  2  0  0  0
  5  7  1  0  0  0
  7  8  2  0  0  0
  8  9  1  0  0  0
  9 10  2  0  0  0
 10 11  1  0  0  0
 11 12  2  0  0  0
 12 13  1  0  0  0
 13 14  2  0  0  0
 14 15  1  0  0  0
 15 16  2  0  0  0
 23 18  1  0  0  0
  6  1  1  0  0  0
 16  7  1  0  0  0
 15 10  1  0  0  0
 17 24  1  0  0  0
M  END
> <minimizedAffinity>
-9.08365

> <CNNscore>
0.4748511910

> <CNNaffinity>
6.0204186440

> <CNN_VS>
2.8588030338

> <CNNaffinity_variance>
0.2202700824

$$$$
[H]Oc1c([H])c([H])c(-c2c([H])nc([H])c(-c3c([H])c([H])c4nc([H])c([H])c([H])c4c3[H])c2[H])c([H])c1[H]


 24 27  0  0  0  0  0  0  0  0999 V2000
  -85.3230   28.9605    1.1061 C   0  0  0  0  0  0  0  0  0  0  0  0
  -84.6977   28.0922    1.9851 C   0  0  0  0  0  0  0  0  0  0  0  0
  -85.3389   26.9511    2.2884 N   0  0  0  0  0  0  0  0  0  0  0  0
  -86.5428   26.6323    1.7779 C   0  0  0  0  0  0  0  0  0  0  0  0
  -87.2064   27.4676    0.8981 C   0  0  0  0  0  0  0  0  0  0  0  0
  -86.5755   28.6412    0.5683 C   0  0  0  0  0  0  0  0  0  0  0  0
  -88.5158   27.0869    0.3605 C   0  0  0  0  0  0  0  0  0  0  0  0
  -89.5675   26.8336    1.2189 C   0  0  0  0  0  0  0  0  0  0  0  0
  -90.8066   26.4984    0.7875 C   0  0  0  0  0  0  0  0  0  0  0  0
  -91.0400   26.4022   -0.5765 C   0  0  0  0  0  0  0  0  0  0  0  0
  -92.2874   26.0719   -0.9609 N   0  0  0  0  0  0  0  0  0  0  0  0
  -92.5675   25.9706   -2.2599 C   0  0  0  0  0  0  0  0  0  0  0  0
  -91.5799   26.2056   -3.1707 C   0  0  0  0  0  0  0  0  0  0  0  0
  -90.2816   26.5484   -2.8184 C   0  0  0  0  0  0  0  0  0  0  0  0
  -90.0039   26.6498   -1.4643 C   0  0  0  0  0  0  0  0  0  0  0  0
  -88.7515   26.9894   -0.9963 C   0  0  0  0  0  0  0  0  0  0  0  0
  -82.7761   33.7275   -0.2607 O   0  0  0  0  0  0  0  0  0  0  0  0
  -83.3918   32.5216    0.0960 C   0  0  0  0  0  0  0  0  0  0  0  0
  -82.6614   31.5169    0.6902 C   0  0  0  0  0  0  0  0  0  0  0  0
  -83.2850   30.3469    1.0295 C   0  0  0  0  0  0  0  0  0  0  0  0
  -84.6266   30.1978    0.7710 C   0  0  0  0  0  0  0  0  0  0  0  0
  -85.3489   31.2110    0.1751 C   0  0  0  0  0  0  0  0  0  0  0  0
  -84.7309   32.3760   -0.1637 C   0  0  0  0  0  0  0  0  0  0  0  0
  -83.2834   34.4727   -0.6946 H   0  0  0  0  0  0  0  0  0  0  0  0
 17 18  1  0  0  0
 18 19  2  0  0  0
 19 20  1  0  0  0
 20 21  2  0  0  0
 21 22  1  0  0  0
 22 23  2  0  0  0
 21  1  1  0  0  0
  1  2  2  0  0  0
  2  3  1  0  0  0
  3  4  2  0  0  0
  4  5  1  0  0  0
  5  6  2  0  0  0
  5  7  1  0  0  0
  7  8  2  0  0  0
  8  9  1  0  0  0
  9 10  2  0  0  0
 10 11  1  0  0  0
 11 12  2  0  0  0
 12 13  1  0  0  0
 13 14  2  0  0  0
 14 15  1  0  0  0
 15 16  2  0  0  0
 23 18  1  0  0  0
  6  1  1  0  0  0
 16  7  1  0  0  0
 15 10  1  0  0  0
 17 24  1  0  0  0
M  END
> <minimizedAffinity>
-9.19168

> <CNNscore>
0.4272003174

> <CNNaffinity>
6.0134196281

> <CNN_VS>
2.5689346790

> <CNNaffinity_variance>
0.2224352807

$$$$
[H]Oc1c([H])c([H])c(-c2c([H])nc([H])c(-c3c([H])c([H])c4nc([H])c([H])c([H])c4c3[H])c2[H])c([H])c1[H]


 24 27  0  0  0  0  0  0  0  0999 V2000
  -85.1910   28.9724    1.1761 C   0  0  0  0  0  0  0  0  0  0  0  0
  -84.4123   28.1265    1.9479 C   0  0  0  0  0  0  0  0  0  0  0  0
  -84.9472   26.9466    2.3041 N   0  0  0  0  0  0  0  0  0  0  0  0
  -86.1880   26.5692    1.9442 C   0  0  0  0  0  0  0  0  0  0  0  0
  -87.0031   27.3801    1.1758 C   0  0  0  0  0  0  0  0  0  0  0  0
  -86.4834   28.5923    0.7954 C   0  0  0  0  0  0  0  0  0  0  0  0
  -88.3486   26.9354    0.8010 C   0  0  0  0  0  0  0  0  0  0  0  0
  -89.4081   27.8194    0.8555 C   0  0  0  0  0  0  0  0  0  0  0  0
  -90.6706   27.4792    0.5033 C   0  0  0  0  0  0  0  0  0  0  0  0
  -90.9212   26.1864    0.0671 C   0  0  0  0  0  0  0  0  0  0  0  0
  -92.1892   25.8933   -0.2782 N   0  0  0  0  0  0  0  0  0  0  0  0
  -92.4842   24.6672   -0.7089 C   0  0  0  0  0  0  0  0  0  0  0  0
  -91.4903   23.7367   -0.7903 C   0  0  0  0  0  0  0  0  0  0  0  0
  -90.1710   23.9961   -0.4450 C   0  0  0  0  0  0  0  0  0  0  0  0
  -89.8781   25.2749    0.0019 C   0  0  0  0  0  0  0  0  0  0  0  0
  -88.6017   25.6495    0.3671 C   0  0  0  0  0  0  0  0  0  0  0  0
  -82.8511   33.8283   -0.2466 O   0  0  0  0  0  0  0  0  0  0  0  0
  -83.4635   32.6175    0.0989 C   0  0  0  0  0  0  0  0  0  0  0  0
  -84.8174   32.4458   -0.0843 C   0  0  0  0  0  0  0  0  0  0  0  0
  -85.3937   31.2535    0.2613 C   0  0  0  0  0  0  0  0  0  0  0  0
  -84.6106   30.2520    0.7836 C   0  0  0  0  0  0  0  0  0  0  0  0
  -83.2551   30.4348    0.9630 C   0  0  0  0  0  0  0  0  0  0  0  0
  -82.6792   31.6201    0.6202 C   0  0  0  0  0  0  0  0  0  0  0  0
  -81.8700   33.9794   -0.1227 H   0  0  0  0  0  0  0  0  0  0  0  0
 17 18  1  0  0  0
 18 19  2  0  0  0
 19 20  1  0  0  0
 20 21  2  0  0  0
 21 22  1  0  0  0
 22 23  2  0  0  0
 21  1  1  0  0  0
  1  2  2  0  0  0
  2  3  1  0  0  0
  3  4  2  0  0  0
  4  5  1  0  0  0
  5  6  2  0  0  0
  5  7  1  0  0  0
  7  8  2  0  0  0
  8  9  1  0  0  0
  9 10  2  0  0  0
 10 11  1  0  0  0
 11 12  2  0  0  0
 12 13  1  0  0  0
 13 14  2  0  0  0
 14 15  1  0  0  0
 15 16  2  0  0  0
 23 18  1  0  0  0
  6  1  1  0  0  0
 16  7  1  0  0  0
 15 10  1  0  0  0
 17 24  1  0  0  0
M  END
> <minimizedAffinity>
-9.05057

> <CNNscore>
0.4218235314

> <CNNaffinity>
5.9911575317

> <CNN_VS>
2.5272111893

> <CNNaffinity_variance>
0.1813353598

$$$$
[H]Oc1c([H])c([H])c(-c2c([H])nc([H])c(-c3c([H])c([H])c4nc([H])c([H])c([H])c4c3[H])c2[H])c([H])c1[H]


 24 27  0  0  0  0  0  0  0  0999 V2000
  -85.3373   28.9870    1.0723 C   0  0  0  0  0  0  0  0  0  0  0  0
  -84.6858   28.1674    1.9786 C   0  0  0  0  0  0  0  0  0  0  0  0
  -85.2837   27.0098    2.3067 N   0  0  0  0  0  0  0  0  0  0  0  0
  -86.4694   26.6300    1.7953 C   0  0  0  0  0  0  0  0  0  0  0  0
  -87.1580   27.4151    0.8888 C   0  0  0  0  0  0  0  0  0  0  0  0
  -86.5713   28.6041    0.5334 C   0  0  0  0  0  0  0  0  0  0  0  0
  -88.4464   26.9686    0.3511 C   0  0  0  0  0  0  0  0  0  0  0  0
  -89.4441   26.5484    1.2085 C   0  0  0  0  0  0  0  0  0  0  0  0
  -90.6630   26.1440    0.7790 C   0  0  0  0  0  0  0  0  0  0  0  0
  -90.9311   26.1479   -0.5820 C   0  0  0  0  0  0  0  0  0  0  0  0
  -92.1572   25.7434   -0.9641 N   0  0  0  0  0  0  0  0  0  0  0  0
  -92.4693   25.7324   -2.2596 C   0  0  0  0  0  0  0  0  0  0  0  0
  -91.5356   26.1333   -3.1693 C   0  0  0  0  0  0  0  0  0  0  0  0
  -90.2610   26.5576   -2.8194 C   0  0  0  0  0  0  0  0  0  0  0  0
  -89.9494   26.5636   -1.4689 C   0  0  0  0  0  0  0  0  0  0  0  0
  -88.7165   26.9704   -1.0027 C   0  0  0  0  0  0  0  0  0  0  0  0
  -82.7378   33.7440   -0.2286 O   0  0  0  0  0  0  0  0  0  0  0  0
  -83.4145   32.5591    0.0853 C   0  0  0  0  0  0  0  0  0  0  0  0
  -84.7662   32.4463   -0.1521 C   0  0  0  0  0  0  0  0  0  0  0  0
  -85.4060   31.2784    0.1635 C   0  0  0  0  0  0  0  0  0  0  0  0
  -84.6878   30.2422    0.7105 C   0  0  0  0  0  0  0  0  0  0  0  0
  -83.3338   30.3660    0.9442 C   0  0  0  0  0  0  0  0  0  0  0  0
  -82.6947   31.5268    0.6314 C   0  0  0  0  0  0  0  0  0  0  0  0
  -81.7568   33.8524   -0.0652 H   0  0  0  0  0  0  0  0  0  0  0  0
 17 18  1  0  0  0
 18 19  2  0  0  0
 19 20  1  0  0  0
 20 21  2  0  0  0
 21 22  1  0  0  0
 22 23  2  0  0  0
 21  1  1  0  0  0
  1  2  2  0  0  0
  2  3  1  0  0  0
  3  4  2  0  0  0
  4  5  1  0  0  0
  5  6  2  0  0  0
  5  7  1  0  0  0
  7  8  2  0  0  0
  8  9  1  0  0  0
  9 10  2  0  0  0
 10 11  1  0  0  0
 11 12  2  0  0  0
 12 13  1  0  0  0
 13 14  2  0  0  0
 14 15  1  0  0  0
 15 16  2  0  0  0
 23 18  1  0  0  0
  6  1  1  0  0  0
 16  7  1  0  0  0
 15 10  1  0  0  0
 17 24  1  0  0  0
M  END
> <minimizedAffinity>
-9.15352

> <CNNscore>
0.4206514359

> <CNNaffinity>
5.9754838943

> <CNN_VS>
2.5135958195

> <CNNaffinity_variance>
0.2083791941

$$$$
[H]/C(=C1/C(=O)N([H])c2c([H])c([H])c(F)c([H])c21)c1c(C([H])([H])[H])c(C(=O)N2C([H])([H])C([H])([H])N(C([H])([H])[H])C([H])([H])C2([H])[H])c(C([H])([H])[H])n1[H]


 30 33  0  0  0  0  0  0  0  0999 V2000
  -90.0147   27.5835   -0.5827 C   0  0  0  0  0  0  0  0  0  0  0  0
  -90.1674   28.0440    0.7119 C   0  0  0  0  0  0  0  0  0  0  0  0
  -91.2273   27.5943    1.6540 C   0  0  0  0  0  0  0  0  0  0  0  0
  -89.2159   28.9455    0.9648 N   0  0  0  0  0  0  0  0  0  0  0  0
  -88.4258   29.1150   -0.1044 C   0  0  0  0  0  0  0  0  0  0  0  0
  -88.9043   28.2782   -1.0741 C   0  0  0  0  0  0  0  0  0  0  0  0
  -88.3747   28.0496   -2.4269 C   0  0  0  0  0  0  0  0  0  0  0  0
  -89.0940   29.4535    1.8628 H   0  0  0  0  0  0  0  0  0  0  0  0
  -87.2669   29.9759   -0.1540 C   0  0  0  0  0  0  0  0  0  0  0  0
  -86.0979   29.7138    0.4082 C   0  0  0  0  0  0  0  0  0  0  0  0
  -85.7494   28.5272    1.1666 C   0  0  0  0  0  0  0  0  0  0  0  0
  -86.4919   27.5396    1.3879 O   0  0  0  0  0  0  0  0  0  0  0  0
  -84.3932   28.7088    1.6053 N   0  0  0  0  0  0  0  0  0  0  0  0
  -83.9355   29.9637    1.1271 C   0  0  0  0  0  0  0  0  0  0  0  0
  -82.7075   30.6148    1.2694 C   0  0  0  0  0  0  0  0  0  0  0  0
  -82.4756   31.8537    0.7113 C   0  0  0  0  0  0  0  0  0  0  0  0
  -83.4762   32.4844   -0.0134 C   0  0  0  0  0  0  0  0  0  0  0  0
  -83.2461   33.7159   -0.5675 F   0  0  0  0  0  0  0  0  0  0  0  0
  -84.6803   31.8428   -0.1513 C   0  0  0  0  0  0  0  0  0  0  0  0
  -84.9156   30.6049    0.4051 C   0  0  0  0  0  0  0  0  0  0  0  0
  -83.8665   28.0146    2.1770 H   0  0  0  0  0  0  0  0  0  0  0  0
  -91.0396   21.2926    0.3227 C   0  0  0  0  0  0  0  0  0  0  0  0
  -91.2515   22.6962    0.0533 N   0  0  0  0  0  0  0  0  0  0  0  0
  -90.3805   23.5758    0.7677 C   0  0  0  0  0  0  0  0  0  0  0  0
  -89.7948   24.6776   -0.0887 C   0  0  0  0  0  0  0  0  0  0  0  0
  -90.7299   25.1985   -1.0523 N   0  0  0  0  0  0  0  0  0  0  0  0
  -91.5670   24.2847   -1.7844 C   0  0  0  0  0  0  0  0  0  0  0  0
  -91.2289   22.8691   -1.3789 C   0  0  0  0  0  0  0  0  0  0  0  0
  -90.8232   26.5943   -1.2793 C   0  0  0  0  0  0  0  0  0  0  0  0
  -91.6482   27.0648   -2.1342 O   0  0  0  0  0  0  0  0  0  0  0  0
 22 23  1  0  0  0
 23 24  1  0  0  0
 24 25  1  0  0  0
 25 26  1  0  0  0
 26 27  1  0  0  0
 27 28  1  0  0  0
 26 29  1  0  0  0
 29 30  2  0  0  0
 29  1  1  0  0  0
  1  2  2  0  0  0
  2  3  1  0  0  0
  2  4  1  0  0  0
  4  5  1  0  0  0
  5  9  1  0  0  0
  9 10  2  0  0  0
 10 11  1  0  0  0
 11 12  2  0  0  0
 11 13  1  0  0  0
 13 14  1  0  0  0
 14 15  2  0  0  0
 15 16  1  0  0  0
 16 17  2  0  0  0
 17 18  1  0  0  0
 17 19  1  0  0  0
 19 20  2  0  0  0
  5  6  2  0  0  0
  6  7  1  0  0  0
 28 23  1  0  0  0
  6  1  1  0  0  0
 20 10  1  0  0  0
 20 14  1  0  0  0
  4  8  1  0  0  0
 13 21  1  0  0  0
M  END
> <minimizedAffinity>
-8.74287

> <CNNscore>
0.1520225555

> <CNNaffinity>
5.9749813080

> <CNN_VS>
0.9083319306

> <CNNaffinity_variance>
0.3179065287

$$$$
[H]/C(=C1/C(=O)N([H])c2c([H])c([H])c(F)c([H])c21)c1c(C([H])([H])[H])c(C(=O)N2C([H])([H])C([H])([H])N(C([H])([H])[H])C([H])([H])C2([H])[H])c(C([H])([H])[H])n1[H]


 30 33  0  0  0  0  0  0  0  0999 V2000
  -89.5030   25.7791    0.7532 C   0  0  0  0  0  0  0  0  0  0  0  0
  -89.5074   26.2252    2.0618 C   0  0  0  0  0  0  0  0  0  0  0  0
  -90.2774   25.5992    3.1701 C   0  0  0  0  0  0  0  0  0  0  0  0
  -88.7148   27.2953    2.1561 N   0  0  0  0  0  0  0  0  0  0  0  0
  -88.1746   27.5926    0.9662 C   0  0  0  0  0  0  0  0  0  0  0  0
  -88.6504   26.6631    0.0835 C   0  0  0  0  0  0  0  0  0  0  0  0
  -88.3365   26.5152   -1.3457 C   0  0  0  0  0  0  0  0  0  0  0  0
  -88.5337   27.8330    3.0263 H   0  0  0  0  0  0  0  0  0  0  0  0
  -87.2280   28.6569    0.7251 C   0  0  0  0  0  0  0  0  0  0  0  0
  -85.9762   28.6754    1.1541 C   0  0  0  0  0  0  0  0  0  0  0  0
  -85.3129   27.6457    1.9315 C   0  0  0  0  0  0  0  0  0  0  0  0
  -85.8099   26.5531    2.2990 O   0  0  0  0  0  0  0  0  0  0  0  0
  -83.9829   28.1244    2.1895 N   0  0  0  0  0  0  0  0  0  0  0  0
  -83.8454   29.4015    1.5870 C   0  0  0  0  0  0  0  0  0  0  0  0
  -82.7680   30.2899    1.5397 C   0  0  0  0  0  0  0  0  0  0  0  0
  -82.8556   31.5006    0.8867 C   0  0  0  0  0  0  0  0  0  0  0  0
  -84.0363   31.8621    0.2547 C   0  0  0  0  0  0  0  0  0  0  0  0
  -84.1237   33.0656   -0.3938 F   0  0  0  0  0  0  0  0  0  0  0  0
  -85.0920   30.9881    0.3027 C   0  0  0  0  0  0  0  0  0  0  0  0
  -85.0081   29.7775    0.9545 C   0  0  0  0  0  0  0  0  0  0  0  0
  -83.2668   27.5956    2.7316 H   0  0  0  0  0  0  0  0  0  0  0  0
  -94.7755   25.2485   -2.9026 C   0  0  0  0  0  0  0  0  0  0  0  0
  -93.4481   25.0540   -2.3661 N   0  0  0  0  0  0  0  0  0  0  0  0
  -92.8522   26.2306   -1.8155 C   0  0  0  0  0  0  0  0  0  0  0  0
  -92.1806   26.0020   -0.4786 C   0  0  0  0  0  0  0  0  0  0  0  0
  -91.5029   24.7336   -0.3991 N   0  0  0  0  0  0  0  0  0  0  0  0
  -92.1452   23.5592   -0.9281 C   0  0  0  0  0  0  0  0  0  0  0  0
  -93.5096   23.9357   -1.4566 C   0  0  0  0  0  0  0  0  0  0  0  0
  -90.2198   24.6421    0.1955 C   0  0  0  0  0  0  0  0  0  0  0  0
  -89.6124   23.5204    0.2726 O   0  0  0  0  0  0  0  0  0  0  0  0
 22 23  1  0  0  0
 23 24  1  0  0  0
 24 25  1  0  0  0
 25 26  1  0  0  0
 26 27  1  0  0  0
 27 28  1  0  0  0
 26 29  1  0  0  0
 29 30  2  0  0  0
 29  1  1  0  0  0
  1  2  2  0  0  0
  2  3  1  0  0  0
  2  4  1  0  0  0
  4  5  1  0  0  0
  5  9  1  0  0  0
  9 10  2  0  0  0
 10 11  1  0  0  0
 11 12  2  0  0  0
 11 13  1  0  0  0
 13 14  1  0  0  0
 14 15  2  0  0  0
 15 16  1  0  0  0
 16 17  2  0  0  0
 17 18  1  0  0  0
 17 19  1  0  0  0
 19 20  2  0  0  0
  5  6  2  0  0  0
  6  7  1  0  0  0
 28 23  1  0  0  0
  6  1  1  0  0  0
 20 10  1  0  0  0
 20 14  1  0  0  0
  4  8  1  0  0  0
 13 21  1  0  0  0
M  END
> <minimizedAffinity>
-9.15426

> <CNNscore>
0.1473111659

> <CNNaffinity>
5.9668321609

> <CNN_VS>
0.8789809942

> <CNNaffinity_variance>
0.2850885689

$$$$
[H]/C(=C1/C(=O)N([H])c2c([H])c([H])c(F)c([H])c21)c1c(C([H])([H])[H])c(C(=O)N2C([H])([H])C([H])([H])N(C([H])([H])[H])C([H])([H])C2([H])[H])c(C([H])([H])[H])n1[H]


 30 33  0  0  0  0  0  0  0  0999 V2000
  -89.9558   27.7820   -1.5388 C   0  0  0  0  0  0  0  0  0  0  0  0
  -90.1818   28.0230   -0.1963 C   0  0  0  0  0  0  0  0  0  0  0  0
  -91.2998   27.4420    0.5946 C   0  0  0  0  0  0  0  0  0  0  0  0
  -89.2394   28.8521    0.2584 N   0  0  0  0  0  0  0  0  0  0  0  0
  -88.3854   29.1829   -0.7201 C   0  0  0  0  0  0  0  0  0  0  0  0
  -88.8122   28.5284   -1.8421 C   0  0  0  0  0  0  0  0  0  0  0  0
  -88.2046   28.5189   -3.1814 C   0  0  0  0  0  0  0  0  0  0  0  0
  -89.1673   29.2010    1.2342 H   0  0  0  0  0  0  0  0  0  0  0  0
  -87.2184   30.0187   -0.5581 C   0  0  0  0  0  0  0  0  0  0  0  0
  -86.1394   29.6951    0.1364 C   0  0  0  0  0  0  0  0  0  0  0  0
  -85.9128   28.4552    0.8547 C   0  0  0  0  0  0  0  0  0  0  0  0
  -86.6921   27.4726    0.9097 O   0  0  0  0  0  0  0  0  0  0  0  0
  -84.6255   28.5778    1.4813 N   0  0  0  0  0  0  0  0  0  0  0  0
  -84.0901   29.8497    1.1520 C   0  0  0  0  0  0  0  0  0  0  0  0
  -82.8833   30.4625    1.4991 C   0  0  0  0  0  0  0  0  0  0  0  0
  -82.5612   31.7286    1.0597 C   0  0  0  0  0  0  0  0  0  0  0  0
  -83.4463   32.4265    0.2512 C   0  0  0  0  0  0  0  0  0  0  0  0
  -83.1265   33.6851   -0.1851 F   0  0  0  0  0  0  0  0  0  0  0  0
  -84.6298   31.8225   -0.0879 C   0  0  0  0  0  0  0  0  0  0  0  0
  -84.9551   30.5575    0.3495 C   0  0  0  0  0  0  0  0  0  0  0  0
  -84.1902   27.8370    2.0712 H   0  0  0  0  0  0  0  0  0  0  0  0
  -94.0855   29.0392   -6.3148 C   0  0  0  0  0  0  0  0  0  0  0  0
  -93.0164   28.4539   -5.5389 N   0  0  0  0  0  0  0  0  0  0  0  0
  -92.3463   29.3675   -4.6678 C   0  0  0  0  0  0  0  0  0  0  0  0
  -92.1097   28.8181   -3.2776 C   0  0  0  0  0  0  0  0  0  0  0  0
  -91.7638   27.4199   -3.2766 N   0  0  0  0  0  0  0  0  0  0  0  0
  -92.4829   26.5174   -4.1370 C   0  0  0  0  0  0  0  0  0  0  0  0
  -93.5499   27.2860   -4.8810 C   0  0  0  0  0  0  0  0  0  0  0  0
  -90.7295   26.9376   -2.4365 C   0  0  0  0  0  0  0  0  0  0  0  0
  -90.4178   25.6984   -2.4274 O   0  0  0  0  0  0  0  0  0  0  0  0
 22 23  1  0  0  0
 23 24  1  0  0  0
 24 25  1  0  0  0
 25 26  1  0  0  0
 26 27  1  0  0  0
 27 28  1  0  0  0
 26 29  1  0  0  0
 29 30  2  0  0  0
 29  1  1  0  0  0
  1  2  2  0  0  0
  2  3  1  0  0  0
  2  4  1  0  0  0
  4  5  1  0  0  0
  5  9  1  0  0  0
  9 10  2  0  0  0
 10 11  1  0  0  0
 11 12  2  0  0  0
 11 13  1  0  0  0
 13 14  1  0  0  0
 14 15  2  0  0  0
 15 16  1  0  0  0
 16 17  2  0  0  0
 17 18  1  0  0  0
 17 19  1  0  0  0
 19 20  2  0  0  0
  5  6  2  0  0  0
  6  7  1  0  0  0
 28 23  1  0  0  0
  6  1  1  0  0  0
 20 10  1  0  0  0
 20 14  1  0  0  0
  4  8  1  0  0  0
 13 21  1  0  0  0
M  END
> <minimizedAffinity>
-8.92249

> <CNNscore>
0.1378009170

> <CNNaffinity>
5.8526787758

> <CNN_VS>
0.8065044880

> <CNNaffinity_variance>
0.1470948011

$$$$
[H]/C(=C1/C(=O)N([H])c2c([H])c([H])c(F)c([H])c21)c1c(C([H])([H])[H])c(C(=O)N2C([H])([H])C([H])([H])N(C([H])([H])[H])C([H])([H])C2([H])[H])c(C([H])([H])[H])n1[H]


 30 33  0  0  0  0  0  0  0  0999 V2000
  -90.3097   26.5811   -1.1782 C   0  0  0  0  0  0  0  0  0  0  0  0
  -89.3634   25.6280   -1.5065 C   0  0  0  0  0  0  0  0  0  0  0  0
  -89.6721   24.2430   -1.9531 C   0  0  0  0  0  0  0  0  0  0  0  0
  -88.1470   26.1573   -1.3561 N   0  0  0  0  0  0  0  0  0  0  0  0
  -88.2303   27.4283   -0.9393 C   0  0  0  0  0  0  0  0  0  0  0  0
  -89.5633   27.7099   -0.8241 C   0  0  0  0  0  0  0  0  0  0  0  0
  -90.1993   28.9789   -0.4393 C   0  0  0  0  0  0  0  0  0  0  0  0
  -87.2512   25.6623   -1.5339 H   0  0  0  0  0  0  0  0  0  0  0  0
  -87.1054   28.3101   -0.7295 C   0  0  0  0  0  0  0  0  0  0  0  0
  -86.2518   28.2301    0.2786 C   0  0  0  0  0  0  0  0  0  0  0  0
  -86.2692   27.2537    1.3513 C   0  0  0  0  0  0  0  0  0  0  0  0
  -87.0804   26.3047    1.4822 O   0  0  0  0  0  0  0  0  0  0  0  0
  -85.1770   27.5880    2.2232 N   0  0  0  0  0  0  0  0  0  0  0  0
  -84.5195   28.7288    1.6947 C   0  0  0  0  0  0  0  0  0  0  0  0
  -83.4129   29.4508    2.1490 C   0  0  0  0  0  0  0  0  0  0  0  0
  -82.9340   30.5482    1.4661 C   0  0  0  0  0  0  0  0  0  0  0  0
  -83.5547   30.9600    0.2960 C   0  0  0  0  0  0  0  0  0  0  0  0
  -83.0793   32.0511   -0.3824 F   0  0  0  0  0  0  0  0  0  0  0  0
  -84.6405   30.2494   -0.1474 C   0  0  0  0  0  0  0  0  0  0  0  0
  -85.1219   29.1524    0.5325 C   0  0  0  0  0  0  0  0  0  0  0  0
  -84.9380   27.0594    3.0890 H   0  0  0  0  0  0  0  0  0  0  0  0
  -94.7031   26.9106   -5.8723 C   0  0  0  0  0  0  0  0  0  0  0  0
  -93.9701   26.4875   -4.7013 N   0  0  0  0  0  0  0  0  0  0  0  0
  -92.5585   26.6977   -4.7766 C   0  0  0  0  0  0  0  0  0  0  0  0
  -91.9660   27.2967   -3.5193 C   0  0  0  0  0  0  0  0  0  0  0  0
  -92.5653   26.7824   -2.3148 N   0  0  0  0  0  0  0  0  0  0  0  0
  -93.9940   26.6179   -2.2554 C   0  0  0  0  0  0  0  0  0  0  0  0
  -94.6022   27.0928   -3.5543 C   0  0  0  0  0  0  0  0  0  0  0  0
  -91.7582   26.4448   -1.1999 C   0  0  0  0  0  0  0  0  0  0  0  0
  -92.2818   25.9904   -0.1264 O   0  0  0  0  0  0  0  0  0  0  0  0
 22 23  1  0  0  0
 23 24  1  0  0  0
 24 25  1  0  0  0
 25 26  1  0  0  0
 26 27  1  0  0  0
 27 28  1  0  0  0
 26 29  1  0  0  0
 29 30  2  0  0  0
 29  1  1  0  0  0
  1  2  2  0  0  0
  2  3  1  0  0  0
  2  4  1  0  0  0
  4  5  1  0  0  0
  5  9  1  0  0  0
  9 10  2  0  0  0
 10 11  1  0  0  0
 11 12  2  0  0  0
 11 13  1  0  0  0
 13 14  1  0  0  0
 14 15  2  0  0  0
 15 16  1  0  0  0
 16 17  2  0  0  0
 17 18  1  0  0  0
 17 19  1  0  0  0
 19 20  2  0  0  0
  5  6  2  0  0  0
  6  7  1  0  0  0
 28 23  1  0  0  0
  6  1  1  0  0  0
 20 10  1  0  0  0
 20 14  1  0  0  0
  4  8  1  0  0  0
 13 21  1  0  0  0
M  END
> <minimizedAffinity>
-8.98875

> <CNNscore>
0.1243649051

> <CNNaffinity>
5.5887398720

> <CNN_VS>
0.6950430870

> <CNNaffinity_variance>
0.2644990385

$$$$
[H]/C(=C1/C(=O)N([H])c2c([H])c([H])c(F)c([H])c21)c1c(C([H])([H])[H])c(C(=O)N2C([H])([H])C([H])([H])N(C([H])([H])[H])C([H])([H])C2([H])[H])c(C([H])([H])[H])n1[H]


 30 33  0  0  0  0  0  0  0  0999 V2000
  -89.7022   27.4837   -1.0274 C   0  0  0  0  0  0  0  0  0  0  0  0
  -89.9040   27.6857    0.3253 C   0  0  0  0  0  0  0  0  0  0  0  0
  -91.0726   27.1804    1.0948 C   0  0  0  0  0  0  0  0  0  0  0  0
  -88.8863   28.3998    0.8119 N   0  0  0  0  0  0  0  0  0  0  0  0
  -88.0045   28.6899   -0.1547 C   0  0  0  0  0  0  0  0  0  0  0  0
  -88.4923   28.1296   -1.3026 C   0  0  0  0  0  0  0  0  0  0  0  0
  -87.8884   28.1209   -2.6436 C   0  0  0  0  0  0  0  0  0  0  0  0
  -88.7809   28.6966    1.8019 H   0  0  0  0  0  0  0  0  0  0  0  0
  -86.7626   29.4019    0.0388 C   0  0  0  0  0  0  0  0  0  0  0  0
  -86.5491   30.6657   -0.2908 C   0  0  0  0  0  0  0  0  0  0  0  0
  -87.5044   31.5755   -0.8943 C   0  0  0  0  0  0  0  0  0  0  0  0
  -88.7011   31.3209   -1.1750 O   0  0  0  0  0  0  0  0  0  0  0  0
  -86.8100   32.8166   -1.0999 N   0  0  0  0  0  0  0  0  0  0  0  0
  -85.4784   32.6633   -0.6350 C   0  0  0  0  0  0  0  0  0  0  0  0
  -84.4022   33.5538   -0.6035 C   0  0  0  0  0  0  0  0  0  0  0  0
  -83.1731   33.1871   -0.0986 C   0  0  0  0  0  0  0  0  0  0  0  0
  -82.9825   31.9050    0.3952 C   0  0  0  0  0  0  0  0  0  0  0  0
  -81.7608   31.5402    0.8965 F   0  0  0  0  0  0  0  0  0  0  0  0
  -84.0406   31.0332    0.3631 C   0  0  0  0  0  0  0  0  0  0  0  0
  -85.2701   31.3961   -0.1408 C   0  0  0  0  0  0  0  0  0  0  0  0
  -87.2433   33.6652   -1.5222 H   0  0  0  0  0  0  0  0  0  0  0  0
  -93.5041   29.3250   -5.8854 C   0  0  0  0  0  0  0  0  0  0  0  0
  -92.5409   28.5966   -5.0923 N   0  0  0  0  0  0  0  0  0  0  0  0
  -91.7826   29.4048   -4.1898 C   0  0  0  0  0  0  0  0  0  0  0  0
  -91.6567   28.8116   -2.8032 C   0  0  0  0  0  0  0  0  0  0  0  0
  -91.4939   27.3805   -2.8162 N   0  0  0  0  0  0  0  0  0  0  0  0
  -92.2995   26.5896   -3.7090 C   0  0  0  0  0  0  0  0  0  0  0  0
  -93.2380   27.4990   -4.4672 C   0  0  0  0  0  0  0  0  0  0  0  0
  -90.5535   26.7580   -1.9580 C   0  0  0  0  0  0  0  0  0  0  0  0
  -90.4044   25.4888   -1.9611 O   0  0  0  0  0  0  0  0  0  0  0  0
 22 23  1  0  0  0
 23 24  1  0  0  0
 24 25  1  0  0  0
 25 26  1  0  0  0
 26 27  1  0  0  0
 27 28  1  0  0  0
 26 29  1  0  0  0
 29 30  2  0  0  0
 29  1  1  0  0  0
  1  2  2  0  0  0
  2  3  1  0  0  0
  2  4  1  0  0  0
  4  5  1  0  0  0
  5  9  1  0  0  0
  9 10  2  0  0  0
 10 11  1  0  0  0
 11 12  2  0  0  0
 11 13  1  0  0  0
 13 14  1  0  0  0
 14 15  2  0  0  0
 15 16  1  0  0  0
 16 17  2  0  0  0
 17 18  1  0  0  0
 17 19  1  0  0  0
 19 20  2  0  0  0
  5  6  2  0  0  0
  6  7  1  0  0  0
 28 23  1  0  0  0
  6  1  1  0  0  0
 20 10  1  0  0  0
 20 14  1  0  0  0
  4  8  1  0  0  0
 13 21  1  0  0  0
M  END
> <minimizedAffinity>
-8.60481

> <CNNscore>
0.1045619771

> <CNNaffinity>
5.5962538719

> <CNN_VS>
0.5851553679

> <CNNaffinity_variance>
0.2836197317

$$$$
[H]/C(=C1/C(=O)N([H])c2c([H])c([H])c(F)c([H])c21)c1c(C([H])([H])[H])c(C(=O)N2C([H])([H])C([H])([H])N(C([H])([H])[H])C([H])([H])C2([H])[H])c(C([H])([H])[H])n1[H]


 30 33  0  0  0  0  0  0  0  0999 V2000
  -90.2021   29.0768   -2.0763 C   0  0  0  0  0  0  0  0  0  0  0  0
  -90.6362   29.0165   -0.7650 C   0  0  0  0  0  0  0  0  0  0  0  0
  -92.0534   28.8455   -0.3464 C   0  0  0  0  0  0  0  0  0  0  0  0
  -89.5818   29.1357    0.0450 N   0  0  0  0  0  0  0  0  0  0  0  0
  -88.4523   29.2748   -0.6629 C   0  0  0  0  0  0  0  0  0  0  0  0
  -88.8160   29.2398   -1.9804 C   0  0  0  0  0  0  0  0  0  0  0  0
  -87.9529   29.3110   -3.1690 C   0  0  0  0  0  0  0  0  0  0  0  0
  -89.6184   29.1244    1.0831 H   0  0  0  0  0  0  0  0  0  0  0  0
  -87.1253   29.3733   -0.1006 C   0  0  0  0  0  0  0  0  0  0  0  0
  -86.3951   30.4762   -0.0585 C   0  0  0  0  0  0  0  0  0  0  0  0
  -86.7770   31.7858   -0.5521 C   0  0  0  0  0  0  0  0  0  0  0  0
  -87.8766   32.0942   -1.0734 O   0  0  0  0  0  0  0  0  0  0  0  0
  -85.6531   32.6509   -0.3216 N   0  0  0  0  0  0  0  0  0  0  0  0
  -84.6250   31.8900    0.2924 C   0  0  0  0  0  0  0  0  0  0  0  0
  -83.3427   32.2441    0.7195 C   0  0  0  0  0  0  0  0  0  0  0  0
  -82.4939   31.3268    1.3010 C   0  0  0  0  0  0  0  0  0  0  0  0
  -82.9074   30.0142    1.4743 C   0  0  0  0  0  0  0  0  0  0  0  0
  -82.0637   29.1023    2.0517 F   0  0  0  0  0  0  0  0  0  0  0  0
  -84.1665   29.6697    1.0543 C   0  0  0  0  0  0  0  0  0  0  0  0
  -85.0174   30.5835    0.4727 C   0  0  0  0  0  0  0  0  0  0  0  0
  -85.6322   33.6614   -0.5758 H   0  0  0  0  0  0  0  0  0  0  0  0
  -92.6010   33.4757   -6.1187 C   0  0  0  0  0  0  0  0  0  0  0  0
  -91.9690   32.2852   -5.5983 N   0  0  0  0  0  0  0  0  0  0  0  0
  -91.2340   32.4837   -4.3888 C   0  0  0  0  0  0  0  0  0  0  0  0
  -91.4857   31.4183   -3.3437 C   0  0  0  0  0  0  0  0  0  0  0  0
  -91.6246   30.0999   -3.9066 N   0  0  0  0  0  0  0  0  0  0  0  0
  -92.4032   29.9256   -5.1046 C   0  0  0  0  0  0  0  0  0  0  0  0
  -92.9800   31.2590   -5.5194 C   0  0  0  0  0  0  0  0  0  0  0  0
  -91.0043   28.9865   -3.2870 C   0  0  0  0  0  0  0  0  0  0  0  0
  -91.1245   27.8129   -3.7781 O   0  0  0  0  0  0  0  0  0  0  0  0
 22 23  1  0  0  0
 23 24  1  0  0  0
 24 25  1  0  0  0
 25 26  1  0  0  0
 26 27  1  0  0  0
 27 28  1  0  0  0
 26 29  1  0  0  0
 29 30  2  0  0  0
 29  1  1  0  0  0
  1  2  2  0  0  0
  2  3  1  0  0  0
  2  4  1  0  0  0
  4  5  1  0  0  0
  5  9  1  0  0  0
  9 10  2  0  0  0
 10 11  1  0  0  0
 11 12  2  0  0  0
 11 13  1  0  0  0
 13 14  1  0  0  0
 14 15  2  0  0  0
 15 16  1  0  0  0
 16 17  2  0  0  0
 17 18  1  0  0  0
 17 19  1  0  0  0
 19 20  2  0  0  0
  5  6  2  0  0  0
  6  7  1  0  0  0
 28 23  1  0  0  0
  6  1  1  0  0  0
 20 10  1  0  0  0
 20 14  1  0  0  0
  4  8  1  0  0  0
 13 21  1  0  0  0
M  END
> <minimizedAffinity>
-9.33212

> <CNNscore>
0.1028250828

> <CNNaffinity>
5.7489304543

> <CNN_VS>
0.5911342502

> <CNNaffinity_variance>
0.1953646839

$$$$
[H]/C(=C1/C(=O)N([H])c2c([H])c([H])c(F)c([H])c21)c1c(C([H])([H])[H])c(C(=O)N2C([H])([H])C([H])([H])N(C([H])([H])[H])C([H])([H])C2([H])[H])c(C([H])([H])[H])n1[H]


 30 33  0  0  0  0  0  0  0  0999 V2000
  -89.2230   29.3574   -1.6141 C   0  0  0  0  0  0  0  0  0  0  0  0
  -87.9443   29.2146   -2.1202 C   0  0  0  0  0  0  0  0  0  0  0  0
  -86.9781   28.1632   -1.7031 C   0  0  0  0  0  0  0  0  0  0  0  0
  -87.7317   30.1667   -3.0315 N   0  0  0  0  0  0  0  0  0  0  0  0
  -88.8125   30.9481   -3.1632 C   0  0  0  0  0  0  0  0  0  0  0  0
  -89.7485   30.4617   -2.2933 C   0  0  0  0  0  0  0  0  0  0  0  0
  -91.1239   30.9333   -2.0730 C   0  0  0  0  0  0  0  0  0  0  0  0
  -86.8533   30.2952   -3.5711 H   0  0  0  0  0  0  0  0  0  0  0  0
  -88.9406   32.0391   -4.1014 C   0  0  0  0  0  0  0  0  0  0  0  0
  -88.1853   33.1257   -4.1147 C   0  0  0  0  0  0  0  0  0  0  0  0
  -87.0918   33.4302   -3.2114 C   0  0  0  0  0  0  0  0  0  0  0  0
  -86.6628   32.6973   -2.2869 O   0  0  0  0  0  0  0  0  0  0  0  0
  -86.6016   34.7270   -3.5890 N   0  0  0  0  0  0  0  0  0  0  0  0
  -87.3725   35.1917   -4.6857 C   0  0  0  0  0  0  0  0  0  0  0  0
  -87.3105   36.3772   -5.4226 C   0  0  0  0  0  0  0  0  0  0  0  0
  -88.1742   36.6266   -6.4674 C   0  0  0  0  0  0  0  0  0  0  0  0
  -89.1357   35.6872   -6.8096 C   0  0  0  0  0  0  0  0  0  0  0  0
  -89.9946   35.9353   -7.8476 F   0  0  0  0  0  0  0  0  0  0  0  0
  -89.1941   34.5247   -6.0847 C   0  0  0  0  0  0  0  0  0  0  0  0
  -88.3327   34.2721   -5.0398 C   0  0  0  0  0  0  0  0  0  0  0  0
  -85.8113   35.2135   -3.1146 H   0  0  0  0  0  0  0  0  0  0  0  0
  -91.5802   23.3667   -1.6344 C   0  0  0  0  0  0  0  0  0  0  0  0
  -90.8982   24.5753   -1.2325 N   0  0  0  0  0  0  0  0  0  0  0  0
  -90.3182   25.3154   -2.3088 C   0  0  0  0  0  0  0  0  0  0  0  0
  -90.5786   26.8043   -2.2313 C   0  0  0  0  0  0  0  0  0  0  0  0
  -90.5322   27.3141   -0.8850 N   0  0  0  0  0  0  0  0  0  0  0  0
  -91.1589   26.5650    0.1722 C   0  0  0  0  0  0  0  0  0  0  0  0
  -91.8110   25.3335   -0.4118 C   0  0  0  0  0  0  0  0  0  0  0  0
  -89.8796   28.5404   -0.6047 C   0  0  0  0  0  0  0  0  0  0  0  0
  -89.8360   29.0014    0.5864 O   0  0  0  0  0  0  0  0  0  0  0  0
 22 23  1  0  0  0
 23 24  1  0  0  0
 24 25  1  0  0  0
 25 26  1  0  0  0
 26 27  1  0  0  0
 27 28  1  0  0  0
 26 29  1  0  0  0
 29 30  2  0  0  0
 29  1  1  0  0  0
  1  2  2  0  0  0
  2  3  1  0  0  0
  2  4  1  0  0  0
  4  5  1  0  0  0
  5  9  1  0  0  0
  9 10  2  0  0  0
 10 11  1  0  0  0
 11 12  2  0  0  0
 11 13  1  0  0  0
 13 14  1  0  0  0
 14 15  2  0  0  0
 15 16  1  0  0  0
 16 17  2  0  0  0
 17 18  1  0  0  0
 17 19  1  0  0  0
 19 20  2  0  0  0
  5  6  2  0  0  0
  6  7  1  0  0  0
 28 23  1  0  0  0
  6  1  1  0  0  0
 20 10  1  0  0  0
 20 14  1  0  0  0
  4  8  1  0  0  0
 13 21  1  0  0  0
M  END
> <minimizedAffinity>
-7.28018

> <CNNscore>
0.0989994630

> <CNNaffinity>
5.2239012718

> <CNN_VS>
0.5171633959

> <CNNaffinity_variance>
0.2162613869

$$$$
[H]/C(=C1/C(=O)N([H])c2c([H])c([H])c(F)c([H])c21)c1c(C([H])([H])[H])c(C(=O)N2C([H])([H])C([H])([H])N(C([H])([H])[H])C([H])([H])C2([H])[H])c(C([H])([H])[H])n1[H]


 30 33  0  0  0  0  0  0  0  0999 V2000
  -90.2514   29.9487   -2.8288 C   0  0  0  0  0  0  0  0  0  0  0  0
  -88.8793   29.8183   -2.7196 C   0  0  0  0  0  0  0  0  0  0  0  0
  -87.9069   30.1392   -3.7987 C   0  0  0  0  0  0  0  0  0  0  0  0
  -88.5844   29.3629   -1.4998 N   0  0  0  0  0  0  0  0  0  0  0  0
  -89.6992   29.1791   -0.7790 C   0  0  0  0  0  0  0  0  0  0  0  0
  -90.7435   29.5379   -1.5854 C   0  0  0  0  0  0  0  0  0  0  0  0
  -92.1789   29.5608   -1.2661 C   0  0  0  0  0  0  0  0  0  0  0  0
  -87.6265   29.1725   -1.1459 H   0  0  0  0  0  0  0  0  0  0  0  0
  -89.7369   28.7473    0.5990 C   0  0  0  0  0  0  0  0  0  0  0  0
  -89.5660   27.5019    1.0125 C   0  0  0  0  0  0  0  0  0  0  0  0
  -89.3034   26.3426    0.1808 C   0  0  0  0  0  0  0  0  0  0  0  0
  -89.1648   26.3366   -1.0668 O   0  0  0  0  0  0  0  0  0  0  0  0
  -89.2309   25.2142    1.0673 N   0  0  0  0  0  0  0  0  0  0  0  0
  -89.4416   25.6755    2.3924 C   0  0  0  0  0  0  0  0  0  0  0  0
  -89.4721   24.9969    3.6133 C   0  0  0  0  0  0  0  0  0  0  0  0
  -89.6982   25.6558    4.8028 C   0  0  0  0  0  0  0  0  0  0  0  0
  -89.9024   27.0278    4.8058 C   0  0  0  0  0  0  0  0  0  0  0  0
  -90.1277   27.6826    5.9878 F   0  0  0  0  0  0  0  0  0  0  0  0
  -89.8718   27.6911    3.6060 C   0  0  0  0  0  0  0  0  0  0  0  0
  -89.6464   27.0359    2.4154 C   0  0  0  0  0  0  0  0  0  0  0  0
  -89.0521   24.2362    0.7544 H   0  0  0  0  0  0  0  0  0  0  0  0
  -90.7212   35.6375   -5.8058 C   0  0  0  0  0  0  0  0  0  0  0  0
  -90.6048   34.2183   -5.5612 N   0  0  0  0  0  0  0  0  0  0  0  0
  -89.8612   33.8770   -4.3894 C   0  0  0  0  0  0  0  0  0  0  0  0
  -90.5155   32.8039   -3.5463 C   0  0  0  0  0  0  0  0  0  0  0  0
  -91.1497   31.7783   -4.3341 N   0  0  0  0  0  0  0  0  0  0  0  0
  -91.9242   32.1559   -5.4870 C   0  0  0  0  0  0  0  0  0  0  0  0
  -91.9353   33.6620   -5.6055 C   0  0  0  0  0  0  0  0  0  0  0  0
  -91.0151   30.4136   -3.9769 C   0  0  0  0  0  0  0  0  0  0  0  0
  -91.5764   29.4974   -4.6687 O   0  0  0  0  0  0  0  0  0  0  0  0
 22 23  1  0  0  0
 23 24  1  0  0  0
 24 25  1  0  0  0
 25 26  1  0  0  0
 26 27  1  0  0  0
 27 28  1  0  0  0
 26 29  1  0  0  0
 29 30  2  0  0  0
 29  1  1  0  0  0
  1  2  2  0  0  0
  2  3  1  0  0  0
  2  4  1  0  0  0
  4  5  1  0  0  0
  5  9  1  0  0  0
  9 10  2  0  0  0
 10 11  1  0  0  0
 11 12  2  0  0  0
 11 13  1  0  0  0
 13 14  1  0  0  0
 14 15  2  0  0  0
 15 16  1  0  0  0
 16 17  2  0  0  0
 17 18  1  0  0  0
 17 19  1  0  0  0
 19 20  2  0  0  0
  5  6  2  0  0  0
  6  7  1  0  0  0
 28 23  1  0  0  0
  6  1  1  0  0  0
 20 10  1  0  0  0
 20 14  1  0  0  0
  4  8  1  0  0  0
 13 21  1  0  0  0
M  END
> <minimizedAffinity>
-7.48815

> <CNNscore>
0.0963833556

> <CNNaffinity>
5.3633852005

> <CNN_VS>
0.5169410706

> <CNNaffinity_variance>
0.1807681620

$$$$
[H]/C(=C1/C(=O)N([H])c2c([H])c([H])c(F)c([H])c21)c1c(C([H])([H])[H])c(C(=O)N2C([H])([H])C([H])([H])N(C([H])([H])[H])C([H])([H])C2([H])[H])c(C([H])([H])[H])n1[H]


 30 33  0  0  0  0  0  0  0  0999 V2000
  -89.8032   27.2388   -0.0667 C   0  0  0  0  0  0  0  0  0  0  0  0
  -89.9073   27.6766    1.2406 C   0  0  0  0  0  0  0  0  0  0  0  0
  -91.0128   27.3207    2.1701 C   0  0  0  0  0  0  0  0  0  0  0  0
  -88.8623   28.4596    1.5184 N   0  0  0  0  0  0  0  0  0  0  0  0
  -88.0555   28.5705    0.4540 C   0  0  0  0  0  0  0  0  0  0  0  0
  -88.6214   27.8198   -0.5388 C   0  0  0  0  0  0  0  0  0  0  0  0
  -88.1169   27.5722   -1.8979 C   0  0  0  0  0  0  0  0  0  0  0  0
  -88.6872   28.9252    2.4304 H   0  0  0  0  0  0  0  0  0  0  0  0
  -86.8082   29.2987    0.4281 C   0  0  0  0  0  0  0  0  0  0  0  0
  -86.6675   30.5561    0.0400 C   0  0  0  0  0  0  0  0  0  0  0  0
  -87.7197   31.4418   -0.4214 C   0  0  0  0  0  0  0  0  0  0  0  0
  -88.9426   31.1692   -0.4990 O   0  0  0  0  0  0  0  0  0  0  0  0
  -87.0841   32.6841   -0.7643 N   0  0  0  0  0  0  0  0  0  0  0  0
  -85.6930   32.5547   -0.5175 C   0  0  0  0  0  0  0  0  0  0  0  0
  -84.6377   33.4558   -0.6806 C   0  0  0  0  0  0  0  0  0  0  0  0
  -83.3385   33.1132   -0.3729 C   0  0  0  0  0  0  0  0  0  0  0  0
  -83.0537   31.8453    0.1122 C   0  0  0  0  0  0  0  0  0  0  0  0
  -81.7624   31.5044    0.4173 F   0  0  0  0  0  0  0  0  0  0  0  0
  -84.0914   30.9631    0.2712 C   0  0  0  0  0  0  0  0  0  0  0  0
  -85.3909   31.3019   -0.0353 C   0  0  0  0  0  0  0  0  0  0  0  0
  -87.5911   33.5180   -1.1299 H   0  0  0  0  0  0  0  0  0  0  0  0
  -91.3678   21.0229    0.5326 C   0  0  0  0  0  0  0  0  0  0  0  0
  -91.4590   22.4525    0.3447 N   0  0  0  0  0  0  0  0  0  0  0  0
  -90.4949   23.2103    1.0787 C   0  0  0  0  0  0  0  0  0  0  0  0
  -89.8337   24.3019    0.2652 C   0  0  0  0  0  0  0  0  0  0  0  0
  -90.7418   24.9564   -0.6411 N   0  0  0  0  0  0  0  0  0  0  0  0
  -91.6758   24.1625   -1.3956 C   0  0  0  0  0  0  0  0  0  0  0  0
  -91.4566   22.7022   -1.0763 C   0  0  0  0  0  0  0  0  0  0  0  0
  -90.7146   26.3654   -0.7906 C   0  0  0  0  0  0  0  0  0  0  0  0
  -91.5148   26.9541   -1.5943 O   0  0  0  0  0  0  0  0  0  0  0  0
 22 23  1  0  0  0
 23 24  1  0  0  0
 24 25  1  0  0  0
 25 26  1  0  0  0
 26 27  1  0  0  0
 27 28  1  0  0  0
 26 29  1  0  0  0
 29 30  2  0  0  0
 29  1  1  0  0  0
  1  2  2  0  0  0
  2  3  1  0  0  0
  2  4  1  0  0  0
  4  5  1  0  0  0
  5  9  1  0  0  0
  9 10  2  0  0  0
 10 11  1  0  0  0
 11 12  2  0  0  0
 11 13  1  0  0  0
 13 14  1  0  0  0
 14 15  2  0  0  0
 15 16  1  0  0  0
 16 17  2  0  0  0
 17 18  1  0  0  0
 17 19  1  0  0  0
 19 20  2  0  0  0
  5  6  2  0  0  0
  6  7  1  0  0  0
 28 23  1  0  0  0
  6  1  1  0  0  0
 20 10  1  0  0  0
 20 14  1  0  0  0
  4  8  1  0  0  0
 13 21  1  0  0  0
M  END
> <minimizedAffinity>
-8.59744

> <CNNscore>
0.0842990354

> <CNNaffinity>
5.6563320160

> <CNN_VS>
0.4768233299

> <CNNaffinity_variance>
0.2966662347

$$$$
[H]c1c([H])c([H])c2c(c1[H])c1c3c(c4c5c([H])c([H])c([H])c([H])c5n5c4c1n2[C@]1([H])O[C@]5(C([H])([H])[H])[C@@]([H])(OC([H])([H])[H])[C@]([H])(N([H])C([H])([H])[H])C1([H])[H])C([H])([H])N([H])C3=O


 37 44  0  0  0  0  0  0  0  0999 V2000
  -91.6600   29.6397   -1.2390 C   0  0  0  0  0  0  0  0  0  0  0  0
  -91.0889   30.8192   -2.0908 C   0  0  0  0  0  0  0  0  0  0  0  0
  -89.7596   30.7855   -1.7389 C   0  0  0  0  0  0  0  0  0  0  0  0
  -89.3147   29.5413   -2.1564 O   0  0  0  0  0  0  0  0  0  0  0  0
  -89.2728   28.7435   -0.9693 C   0  0  0  0  0  0  0  0  0  0  0  0
  -89.0533   27.3312   -1.5785 C   0  0  0  0  0  0  0  0  0  0  0  0
  -90.5880   28.9127   -0.4040 C   0  0  0  0  0  0  0  0  0  0  0  0
  -88.0424   29.0726   -0.2967 N   0  0  0  0  0  0  0  0  0  0  0  0
  -87.3228   28.2290    0.5094 C   0  0  0  0  0  0  0  0  0  0  0  0
  -87.5684   26.9900    1.0283 C   0  0  0  0  0  0  0  0  0  0  0  0
  -86.6303   26.3716    1.8467 C   0  0  0  0  0  0  0  0  0  0  0  0
  -85.4329   26.9766    2.1626 C   0  0  0  0  0  0  0  0  0  0  0  0
  -85.1601   28.2349    1.6492 C   0  0  0  0  0  0  0  0  0  0  0  0
  -86.1093   28.8048    0.8503 C   0  0  0  0  0  0  0  0  0  0  0  0
  -86.0872   30.0303    0.2447 C   0  0  0  0  0  0  0  0  0  0  0  0
  -85.1844   31.0791    0.1490 C   0  0  0  0  0  0  0  0  0  0  0  0
  -83.8407   31.1830    0.7738 C   0  0  0  0  0  0  0  0  0  0  0  0
  -83.3448   32.4667    0.3650 N   0  0  0  0  0  0  0  0  0  0  0  0
  -84.3091   33.1300   -0.4826 C   0  0  0  0  0  0  0  0  0  0  0  0
  -84.0486   34.2524   -0.9411 O   0  0  0  0  0  0  0  0  0  0  0  0
  -85.4243   32.2297   -0.5818 C   0  0  0  0  0  0  0  0  0  0  0  0
  -86.6237   32.3721   -1.2618 C   0  0  0  0  0  0  0  0  0  0  0  0
  -87.2271   33.3351   -2.0065 C   0  0  0  0  0  0  0  0  0  0  0  0
  -86.8477   34.5667   -2.4446 C   0  0  0  0  0  0  0  0  0  0  0  0
  -87.7736   35.2907   -3.2176 C   0  0  0  0  0  0  0  0  0  0  0  0
  -89.0183   34.8002   -3.5341 C   0  0  0  0  0  0  0  0  0  0  0  0
  -89.3948   33.5453   -3.0834 C   0  0  0  0  0  0  0  0  0  0  0  0
  -88.4736   32.8470   -2.3249 C   0  0  0  0  0  0  0  0  0  0  0  0
  -88.6536   31.6443   -1.8155 N   0  0  0  0  0  0  0  0  0  0  0  0
  -87.5060   31.3207   -1.1539 C   0  0  0  0  0  0  0  0  0  0  0  0
  -87.2493   30.1579   -0.4202 C   0  0  0  0  0  0  0  0  0  0  0  0
  -82.4141   32.8281    0.6644 H   0  0  0  0  0  0  0  0  0  0  0  0
  -92.9344   29.5116   -3.1880 C   0  0  0  0  0  0  0  0  0  0  0  0
  -92.4648   28.7818   -2.0298 N   0  0  0  0  0  0  0  0  0  0  0  0
  -93.2794   28.4649   -1.4970 H   0  0  0  0  0  0  0  0  0  0  0  0
  -90.6900   29.2161    0.9592 O   0  0  0  0  0  0  0  0  0  0  0  0
  -91.0627   28.1327    1.7455 C   0  0  0  0  0  0  0  0  0  0  0  0
 33 34  1  0  0  0
 34  1  1  0  0  0
  1  2  1  0  0  0
  2  3  1  0  0  0
  3  4  1  0  0  0
  4  5  1  0  0  0
  5  6  1  0  0  0
  5  7  1  0  0  0
  7 36  1  0  0  0
 36 37  1  0  0  0
  5  8  1  0  0  0
  8  9  1  0  0  0
  9 10  2  0  0  0
 10 11  1  0  0  0
 11 12  2  0  0  0
 12 13  1  0  0  0
 13 14  2  0  0  0
 14 15  1  0  0  0
 15 16  2  0  0  0
 16 17  1  0  0  0
 17 18  1  0  0  0
 18 19  1  0  0  0
 19 20  2  0  0  0
 19 21  1  0  0  0
 21 22  2  0  0  0
 22 23  1  0  0  0
 23 24  2  0  0  0
 24 25  1  0  0  0
 25 26  2  0  0  0
 26 27  1  0  0  0
 27 28  2  0  0  0
 28 29  1  0  0  0
 29 30  1  0  0  0
 30 31  2  0  0  0
  7  1  1  0  0  0
 31  8  1  0  0  0
 29  3  1  0  0  0
 14  9  1  0  0  0
 31 15  1  0  0  0
 21 16  1  0  0  0
 30 22  1  0  0  0
 28 23  1  0  0  0
 34 35  1  0  0  0
 18 32  1  0  0  0
M  END
> <minimizedAffinity>
-10.68360

> <CNNscore>
0.7005499005

> <CNNaffinity>
6.9255356789

> <CNN_VS>
4.8516831398

> <CNNaffinity_variance>
0.0887105763

$$$$
[H]c1c([H])c([H])c2c(c1[H])c1c3c(c4c5c([H])c([H])c([H])c([H])c5n5c4c1n2[C@]1([H])O[C@]5(C([H])([H])[H])[C@@]([H])(OC([H])([H])[H])[C@]([H])(N([H])C([H])([H])[H])C1([H])[H])C([H])([H])N([H])C3=O


 37 44  0  0  0  0  0  0  0  0999 V2000
  -88.3432   25.8436    0.8712 C   0  0  0  0  0  0  0  0  0  0  0  0
  -87.1062   26.5537    1.5104 C   0  0  0  0  0  0  0  0  0  0  0  0
  -87.2246   27.8208    0.9883 C   0  0  0  0  0  0  0  0  0  0  0  0
  -88.4363   28.2899    1.4700 O   0  0  0  0  0  0  0  0  0  0  0  0
  -89.3503   28.1495    0.3782 C   0  0  0  0  0  0  0  0  0  0  0  0
  -90.7014   28.4180    1.0967 C   0  0  0  0  0  0  0  0  0  0  0  0
  -89.1899   26.7733   -0.0197 C   0  0  0  0  0  0  0  0  0  0  0  0
  -89.1365   29.2829   -0.4846 N   0  0  0  0  0  0  0  0  0  0  0  0
  -90.0830   29.8650   -1.2874 C   0  0  0  0  0  0  0  0  0  0  0  0
  -91.3579   29.5216   -1.6360 C   0  0  0  0  0  0  0  0  0  0  0  0
  -92.0899   30.3235   -2.5040 C   0  0  0  0  0  0  0  0  0  0  0  0
  -91.5648   31.4797   -3.0396 C   0  0  0  0  0  0  0  0  0  0  0  0
  -90.2723   31.8497   -2.7021 C   0  0  0  0  0  0  0  0  0  0  0  0
  -89.5901   31.0330   -1.8468 C   0  0  0  0  0  0  0  0  0  0  0  0
  -88.3116   31.1667   -1.3812 C   0  0  0  0  0  0  0  0  0  0  0  0
  -87.2928   32.0982   -1.5181 C   0  0  0  0  0  0  0  0  0  0  0  0
  -87.3024   33.3451   -2.3254 C   0  0  0  0  0  0  0  0  0  0  0  0
  -86.0034   33.9221   -2.1236 N   0  0  0  0  0  0  0  0  0  0  0  0
  -85.2229   33.0993   -1.2281 C   0  0  0  0  0  0  0  0  0  0  0  0
  -84.0705   33.4464   -0.9288 O   0  0  0  0  0  0  0  0  0  0  0  0
  -86.0665   31.9879   -0.8862 C   0  0  0  0  0  0  0  0  0  0  0  0
  -85.8119   30.8971   -0.0696 C   0  0  0  0  0  0  0  0  0  0  0  0
  -84.7572   30.4244    0.6445 C   0  0  0  0  0  0  0  0  0  0  0  0
  -83.5028   30.8890    0.8964 C   0  0  0  0  0  0  0  0  0  0  0  0
  -82.6707   30.0954    1.7068 C   0  0  0  0  0  0  0  0  0  0  0  0
  -83.0802   28.8950    2.2375 C   0  0  0  0  0  0  0  0  0  0  0  0
  -84.3592   28.4311    1.9753 C   0  0  0  0  0  0  0  0  0  0  0  0
  -85.1640   29.2226    1.1771 C   0  0  0  0  0  0  0  0  0  0  0  0
  -86.4042   28.9464    0.8252 N   0  0  0  0  0  0  0  0  0  0  0  0
  -86.8352   29.9841    0.0527 C   0  0  0  0  0  0  0  0  0  0  0  0
  -88.0746   30.1104   -0.5831 C   0  0  0  0  0  0  0  0  0  0  0  0
  -85.7089   34.8109   -2.5816 H   0  0  0  0  0  0  0  0  0  0  0  0
  -90.2965   24.6241    1.2407 C   0  0  0  0  0  0  0  0  0  0  0  0
  -89.0867   25.1356    1.8485 N   0  0  0  0  0  0  0  0  0  0  0  0
  -89.3510   25.7585    2.6166 H   0  0  0  0  0  0  0  0  0  0  0  0
  -89.0214   26.4917   -1.3810 O   0  0  0  0  0  0  0  0  0  0  0  0
  -90.1436   25.9297   -1.9775 C   0  0  0  0  0  0  0  0  0  0  0  0
 33 34  1  0  0  0
 34  1  1  0  0  0
  1  2  1  0  0  0
  2  3  1  0  0  0
  3  4  1  0  0  0
  4  5  1  0  0  0
  5  6  1  0  0  0
  5  7  1  0  0  0
  7 36  1  0  0  0
 36 37  1  0  0  0
  5  8  1  0  0  0
  8  9  1  0  0  0
  9 10  2  0  0  0
 10 11  1  0  0  0
 11 12  2  0  0  0
 12 13  1  0  0  0
 13 14  2  0  0  0
 14 15  1  0  0  0
 15 16  2  0  0  0
 16 17  1  0  0  0
 17 18  1  0  0  0
 18 19  1  0  0  0
 19 20  2  0  0  0
 19 21  1  0  0  0
 21 22  2  0  0  0
 22 23  1  0  0  0
 23 24  2  0  0  0
 24 25  1  0  0  0
 25 26  2  0  0  0
 26 27  1  0  0  0
 27 28  2  0  0  0
 28 29  1  0  0  0
 29 30  1  0  0  0
 30 31  2  0  0  0
  7  1  1  0  0  0
 31  8  1  0  0  0
 29  3  1  0  0  0
 14  9  1  0  0  0
 31 15  1  0  0  0
 21 16  1  0  0  0
 30 22  1  0  0  0
 28 23  1  0  0  0
 34 35  1  0  0  0
 18 32  1  0  0  0
M  END
> <minimizedAffinity>
-12.24657

> <CNNscore>
0.6000834703

> <CNNaffinity>
7.0470228195

> <CNN_VS>
4.2288017273

> <CNNaffinity_variance>
0.2379758060

$$$$
[H]c1c([H])c([H])c2c(c1[H])c1c3c(c4c5c([H])c([H])c([H])c([H])c5n5c4c1n2[C@]1([H])O[C@]5(C([H])([H])[H])[C@@]([H])(OC([H])([H])[H])[C@]([H])(N([H])C([H])([H])[H])C1([H])[H])C([H])([H])N([H])C3=O


 37 44  0  0  0  0  0  0  0  0999 V2000
  -90.7150   30.9405   -3.2219 C   0  0  0  0  0  0  0  0  0  0  0  0
  -91.1301   29.8169   -2.2179 C   0  0  0  0  0  0  0  0  0  0  0  0
  -90.0246   29.7648   -1.4011 C   0  0  0  0  0  0  0  0  0  0  0  0
  -89.9544   31.0211   -0.8205 O   0  0  0  0  0  0  0  0  0  0  0  0
  -88.9325   31.7104   -1.5471 C   0  0  0  0  0  0  0  0  0  0  0  0
  -89.1359   33.1599   -1.0264 C   0  0  0  0  0  0  0  0  0  0  0  0
  -89.3303   31.5473   -2.9231 C   0  0  0  0  0  0  0  0  0  0  0  0
  -87.6738   31.2734   -1.0000 N   0  0  0  0  0  0  0  0  0  0  0  0
  -86.5204   32.0132   -0.9607 C   0  0  0  0  0  0  0  0  0  0  0  0
  -86.1550   33.2116   -1.5040 C   0  0  0  0  0  0  0  0  0  0  0  0
  -84.8768   33.7172   -1.2969 C   0  0  0  0  0  0  0  0  0  0  0  0
  -83.9413   33.0379   -0.5465 C   0  0  0  0  0  0  0  0  0  0  0  0
  -84.2873   31.8189    0.0150 C   0  0  0  0  0  0  0  0  0  0  0  0
  -85.5528   31.3603   -0.2140 C   0  0  0  0  0  0  0  0  0  0  0  0
  -86.1236   30.1922    0.2088 C   0  0  0  0  0  0  0  0  0  0  0  0
  -85.7329   29.1192    0.9963 C   0  0  0  0  0  0  0  0  0  0  0  0
  -84.4196   28.9058    1.6569 C   0  0  0  0  0  0  0  0  0  0  0  0
  -84.5476   27.6431    2.3276 N   0  0  0  0  0  0  0  0  0  0  0  0
  -85.8690   27.0964    2.1193 C   0  0  0  0  0  0  0  0  0  0  0  0
  -86.1674   26.0082    2.6339 O   0  0  0  0  0  0  0  0  0  0  0  0
  -86.5573   28.0473    1.2911 C   0  0  0  0  0  0  0  0  0  0  0  0
  -87.8466   28.0143    0.7831 C   0  0  0  0  0  0  0  0  0  0  0  0
  -88.8910   27.1455    0.7988 C   0  0  0  0  0  0  0  0  0  0  0  0
  -89.1096   25.9420    1.3959 C   0  0  0  0  0  0  0  0  0  0  0  0
  -90.3548   25.3268    1.1723 C   0  0  0  0  0  0  0  0  0  0  0  0
  -91.3310   25.8940    0.3878 C   0  0  0  0  0  0  0  0  0  0  0  0
  -91.0987   27.1195   -0.2153 C   0  0  0  0  0  0  0  0  0  0  0  0
  -89.8701   27.7106    0.0142 C   0  0  0  0  0  0  0  0  0  0  0  0
  -89.4745   28.8709   -0.4712 N   0  0  0  0  0  0  0  0  0  0  0  0
  -88.2149   29.0880    0.0039 C   0  0  0  0  0  0  0  0  0  0  0  0
  -87.3765   30.1711   -0.2799 C   0  0  0  0  0  0  0  0  0  0  0  0
  -83.7685   27.2188    2.8749 H   0  0  0  0  0  0  0  0  0  0  0  0
  -91.5136   32.6582   -4.5824 C   0  0  0  0  0  0  0  0  0  0  0  0
  -91.7503   31.8965   -3.3748 N   0  0  0  0  0  0  0  0  0  0  0  0
  -91.7582   32.5442   -2.5821 H   0  0  0  0  0  0  0  0  0  0  0  0
  -88.3646   31.1310   -3.8479 O   0  0  0  0  0  0  0  0  0  0  0  0
  -87.8265   32.1696   -4.5980 C   0  0  0  0  0  0  0  0  0  0  0  0
 33 34  1  0  0  0
 34  1  1  0  0  0
  1  2  1  0  0  0
  2  3  1  0  0  0
  3  4  1  0  0  0
  4  5  1  0  0  0
  5  6  1  0  0  0
  5  7  1  0  0  0
  7 36  1  0  0  0
 36 37  1  0  0  0
  5  8  1  0  0  0
  8  9  1  0  0  0
  9 10  2  0  0  0
 10 11  1  0  0  0
 11 12  2  0  0  0
 12 13  1  0  0  0
 13 14  2  0  0  0
 14 15  1  0  0  0
 15 16  2  0  0  0
 16 17  1  0  0  0
 17 18  1  0  0  0
 18 19  1  0  0  0
 19 20  2  0  0  0
 19 21  1  0  0  0
 21 22  2  0  0  0
 22 23  1  0  0  0
 23 24  2  0  0  0
 24 25  1  0  0  0
 25 26  2  0  0  0
 26 27  1  0  0  0
 27 28  2  0  0  0
 28 29  1  0  0  0
 29 30  1  0  0  0
 30 31  2  0  0  0
  7  1  1  0  0  0
 31  8  1  0  0  0
 29  3  1  0  0  0
 14  9  1  0  0  0
 31 15  1  0  0  0
 21 16  1  0  0  0
 30 22  1  0  0  0
 28 23  1  0  0  0
 34 35  1  0  0  0
 18 32  1  0  0  0
M  END
> <minimizedAffinity>
-10.27499

> <CNNscore>
0.3312484026

> <CNNaffinity>
6.5454549789

> <CNN_VS>
2.1681714058

> <CNNaffinity_variance>
0.3530886769

$$$$
[H]c1c([H])c([H])c2c(c1[H])c1c3c(c4c5c([H])c([H])c([H])c([H])c5n5c4c1n2[C@]1([H])O[C@]5(C([H])([H])[H])[C@@]([H])(OC([H])([H])[H])[C@]([H])(N([H])C([H])([H])[H])C1([H])[H])C([H])([H])N([H])C3=O


 37 44  0  0  0  0  0  0  0  0999 V2000
  -90.3289   26.9280    0.9066 C   0  0  0  0  0  0  0  0  0  0  0  0
  -90.6791   27.8283   -0.3221 C   0  0  0  0  0  0  0  0  0  0  0  0
  -89.5157   28.5475   -0.4683 C   0  0  0  0  0  0  0  0  0  0  0  0
  -88.5449   27.5975   -0.7429 O   0  0  0  0  0  0  0  0  0  0  0  0
  -87.8454   27.4126    0.4915 C   0  0  0  0  0  0  0  0  0  0  0  0
  -87.0006   26.1520    0.1584 C   0  0  0  0  0  0  0  0  0  0  0  0
  -88.8993   27.1478    1.4387 C   0  0  0  0  0  0  0  0  0  0  0  0
  -86.9026   28.4965    0.5955 N   0  0  0  0  0  0  0  0  0  0  0  0
  -85.6998   28.4484    1.2514 C   0  0  0  0  0  0  0  0  0  0  0  0
  -85.1154   27.5281    2.0738 C   0  0  0  0  0  0  0  0  0  0  0  0
  -83.8577   27.7671    2.6155 C   0  0  0  0  0  0  0  0  0  0  0  0
  -83.1617   28.9263    2.3480 C   0  0  0  0  0  0  0  0  0  0  0  0
  -83.7336   29.8766    1.5169 C   0  0  0  0  0  0  0  0  0  0  0  0
  -84.9698   29.6005    1.0072 C   0  0  0  0  0  0  0  0  0  0  0  0
  -85.7443   30.3743    0.1884 C   0  0  0  0  0  0  0  0  0  0  0  0
  -85.6106   31.6023   -0.4428 C   0  0  0  0  0  0  0  0  0  0  0  0
  -84.4602   32.5397   -0.3750 C   0  0  0  0  0  0  0  0  0  0  0  0
  -84.8456   33.6526   -1.1958 N   0  0  0  0  0  0  0  0  0  0  0  0
  -86.1548   33.4267   -1.7642 C   0  0  0  0  0  0  0  0  0  0  0  0
  -86.6513   34.2823   -2.5122 O   0  0  0  0  0  0  0  0  0  0  0  0
  -86.5799   32.1480   -1.2662 C   0  0  0  0  0  0  0  0  0  0  0  0
  -87.7600   31.4555   -1.4879 C   0  0  0  0  0  0  0  0  0  0  0  0
  -88.9230   31.6763   -2.1547 C   0  0  0  0  0  0  0  0  0  0  0  0
  -89.3795   32.6825   -2.9498 C   0  0  0  0  0  0  0  0  0  0  0  0
  -90.6771   32.5509   -3.4768 C   0  0  0  0  0  0  0  0  0  0  0  0
  -91.4751   31.4619   -3.2173 C   0  0  0  0  0  0  0  0  0  0  0  0
  -91.0009   30.4430   -2.4070 C   0  0  0  0  0  0  0  0  0  0  0  0
  -89.7241   30.5877   -1.8969 C   0  0  0  0  0  0  0  0  0  0  0  0
  -89.1083   29.7236   -1.1142 N   0  0  0  0  0  0  0  0  0  0  0  0
  -87.8734   30.2393   -0.8524 C   0  0  0  0  0  0  0  0  0  0  0  0
  -86.8832   29.6927   -0.0296 C   0  0  0  0  0  0  0  0  0  0  0  0
  -84.2341   34.4857   -1.3316 H   0  0  0  0  0  0  0  0  0  0  0  0
  -91.8305   25.5191   -0.1884 C   0  0  0  0  0  0  0  0  0  0  0  0
  -90.6561   25.5719    0.6557 N   0  0  0  0  0  0  0  0  0  0  0  0
  -90.8678   25.0875    1.5323 H   0  0  0  0  0  0  0  0  0  0  0  0
  -88.8928   27.8482    2.6512 O   0  0  0  0  0  0  0  0  0  0  0  0
  -89.6009   27.2146    3.6652 C   0  0  0  0  0  0  0  0  0  0  0  0
 33 34  1  0  0  0
 34  1  1  0  0  0
  1  2  1  0  0  0
  2  3  1  0  0  0
  3  4  1  0  0  0
  4  5  1  0  0  0
  5  6  1  0  0  0
  5  7  1  0  0  0
  7 36  1  0  0  0
 36 37  1  0  0  0
  5  8  1  0  0  0
  8  9  1  0  0  0
  9 10  2  0  0  0
 10 11  1  0  0  0
 11 12  2  0  0  0
 12 13  1  0  0  0
 13 14  2  0  0  0
 14 15  1  0  0  0
 15 16  2  0  0  0
 16 17  1  0  0  0
 17 18  1  0  0  0
 18 19  1  0  0  0
 19 20  2  0  0  0
 19 21  1  0  0  0
 21 22  2  0  0  0
 22 23  1  0  0  0
 23 24  2  0  0  0
 24 25  1  0  0  0
 25 26  2  0  0  0
 26 27  1  0  0  0
 27 28  2  0  0  0
 28 29  1  0  0  0
 29 30  1  0  0  0
 30 31  2  0  0  0
  7  1  1  0  0  0
 31  8  1  0  0  0
 29  3  1  0  0  0
 14  9  1  0  0  0
 31 15  1  0  0  0
 21 16  1  0  0  0
 30 22  1  0  0  0
 28 23  1  0  0  0
 34 35  1  0  0  0
 18 32  1  0  0  0
M  END
> <minimizedAffinity>
-11.51081

> <CNNscore>
0.3214085400

> <CNNaffinity>
6.7350511551

> <CNN_VS>
2.1647028923

> <CNNaffinity_variance>
0.1707750559

$$$$
[H]c1c([H])c([H])c2c(c1[H])c1c3c(c4c5c([H])c([H])c([H])c([H])c5n5c4c1n2[C@]1([H])O[C@]5(C([H])([H])[H])[C@@]([H])(OC([H])([H])[H])[C@]([H])(N([H])C([H])([H])[H])C1([H])[H])C([H])([H])N([H])C3=O


 37 44  0  0  0  0  0  0  0  0999 V2000
  -88.6154   25.8682    0.9825 C   0  0  0  0  0  0  0  0  0  0  0  0
  -87.5986   26.8498    1.6498 C   0  0  0  0  0  0  0  0  0  0  0  0
  -87.7711   27.9779    0.8820 C   0  0  0  0  0  0  0  0  0  0  0  0
  -89.0940   28.3406    1.0787 O   0  0  0  0  0  0  0  0  0  0  0  0
  -89.7828   27.8839   -0.0892 C   0  0  0  0  0  0  0  0  0  0  0  0
  -91.2597   28.0712    0.3551 C   0  0  0  0  0  0  0  0  0  0  0  0
  -89.3974   26.4982   -0.1865 C   0  0  0  0  0  0  0  0  0  0  0  0
  -89.5560   28.8720   -1.1124 N   0  0  0  0  0  0  0  0  0  0  0  0
  -90.4105   29.1639   -2.1439 C   0  0  0  0  0  0  0  0  0  0  0  0
  -91.5573   28.5837   -2.6055 C   0  0  0  0  0  0  0  0  0  0  0  0
  -92.2162   29.1100   -3.7106 C   0  0  0  0  0  0  0  0  0  0  0  0
  -91.7441   30.2216   -4.3745 C   0  0  0  0  0  0  0  0  0  0  0  0
  -90.5814   30.8284   -3.9261 C   0  0  0  0  0  0  0  0  0  0  0  0
  -89.9672   30.2783   -2.8379 C   0  0  0  0  0  0  0  0  0  0  0  0
  -88.8128   30.6747   -2.2219 C   0  0  0  0  0  0  0  0  0  0  0  0
  -87.9008   31.7075   -2.3824 C   0  0  0  0  0  0  0  0  0  0  0  0
  -87.9153   32.7832   -3.4068 C   0  0  0  0  0  0  0  0  0  0  0  0
  -86.7467   33.5695   -3.1290 N   0  0  0  0  0  0  0  0  0  0  0  0
  -86.0427   33.0346   -1.9860 C   0  0  0  0  0  0  0  0  0  0  0  0
  -85.0077   33.5921   -1.5911 O   0  0  0  0  0  0  0  0  0  0  0  0
  -86.7979   31.8870   -1.5659 C   0  0  0  0  0  0  0  0  0  0  0  0
  -86.5635   31.0008   -0.5261 C   0  0  0  0  0  0  0  0  0  0  0  0
  -85.6006   30.8162    0.4144 C   0  0  0  0  0  0  0  0  0  0  0  0
  -84.4712   31.4949    0.7558 C   0  0  0  0  0  0  0  0  0  0  0  0
  -83.7055   30.9815    1.8184 C   0  0  0  0  0  0  0  0  0  0  0  0
  -84.0584   29.8428    2.5032 C   0  0  0  0  0  0  0  0  0  0  0  0
  -85.2101   29.1594    2.1480 C   0  0  0  0  0  0  0  0  0  0  0  0
  -85.9511   29.6768    1.1017 C   0  0  0  0  0  0  0  0  0  0  0  0
  -87.0712   29.1665    0.6291 N   0  0  0  0  0  0  0  0  0  0  0  0
  -87.4796   29.9829   -0.3839 C   0  0  0  0  0  0  0  0  0  0  0  0
  -88.5965   29.8164   -1.2093 C   0  0  0  0  0  0  0  0  0  0  0  0
  -86.4826   34.4002   -3.7005 H   0  0  0  0  0  0  0  0  0  0  0  0
  -89.0529   25.7172    3.2683 C   0  0  0  0  0  0  0  0  0  0  0  0
  -89.4295   25.2369    1.9561 N   0  0  0  0  0  0  0  0  0  0  0  0
  -89.2923   24.2227    1.9330 H   0  0  0  0  0  0  0  0  0  0  0  0
  -88.9644   26.0157   -1.4277 O   0  0  0  0  0  0  0  0  0  0  0  0
  -89.8921   25.1995   -2.0633 C   0  0  0  0  0  0  0  0  0  0  0  0
 33 34  1  0  0  0
 34  1  1  0  0  0
  1  2  1  0  0  0
  2  3  1  0  0  0
  3  4  1  0  0  0
  4  5  1  0  0  0
  5  6  1  0  0  0
  5  7  1  0  0  0
  7 36  1  0  0  0
 36 37  1  0  0  0
  5  8  1  0  0  0
  8  9  1  0  0  0
  9 10  2  0  0  0
 10 11  1  0  0  0
 11 12  2  0  0  0
 12 13  1  0  0  0
 13 14  2  0  0  0
 14 15  1  0  0  0
 15 16  2  0  0  0
 16 17  1  0  0  0
 17 18  1  0  0  0
 18 19  1  0  0  0
 19 20  2  0  0  0
 19 21  1  0  0  0
 21 22  2  0  0  0
 22 23  1  0  0  0
 23 24  2  0  0  0
 24 25  1  0  0  0
 25 26  2  0  0  0
 26 27  1  0  0  0
 27 28  2  0  0  0
 28 29  1  0  0  0
 29 30  1  0  0  0
 30 31  2  0  0  0
  7  1  1  0  0  0
 31  8  1  0  0  0
 29  3  1  0  0  0
 14  9  1  0  0  0
 31 15  1  0  0  0
 21 16  1  0  0  0
 30 22  1  0  0  0
 28 23  1  0  0  0
 34 35  1  0  0  0
 18 32  1  0  0  0
M  END
> <minimizedAffinity>
-10.97527

> <CNNscore>
0.3141312003

> <CNNaffinity>
6.5823531151

> <CNN_VS>
2.0677225590

> <CNNaffinity_variance>
0.2988844514

$$$$
[H]c1c([H])c([H])c2c(c1[H])c1c3c(c4c5c([H])c([H])c([H])c([H])c5n5c4c1n2[C@]1([H])O[C@]5(C([H])([H])[H])[C@@]([H])(OC([H])([H])[H])[C@]([H])(N([H])C([H])([H])[H])C1([H])[H])C([H])([H])N([H])C3=O


 37 44  0  0  0  0  0  0  0  0999 V2000
  -90.7156   26.7106   -0.9444 C   0  0  0  0  0  0  0  0  0  0  0  0
  -89.5962   27.2453    0.0064 C   0  0  0  0  0  0  0  0  0  0  0  0
  -89.3608   28.4901   -0.5294 C   0  0  0  0  0  0  0  0  0  0  0  0
  -90.5633   29.1657   -0.3958 O   0  0  0  0  0  0  0  0  0  0  0  0
  -91.1613   29.1216   -1.6949 C   0  0  0  0  0  0  0  0  0  0  0  0
  -92.5926   29.6320   -1.3712 C   0  0  0  0  0  0  0  0  0  0  0  0
  -91.1281   27.7206   -2.0328 C   0  0  0  0  0  0  0  0  0  0  0  0
  -90.5412   30.1667   -2.4681 N   0  0  0  0  0  0  0  0  0  0  0  0
  -91.1290   30.8535   -3.4986 C   0  0  0  0  0  0  0  0  0  0  0  0
  -92.3022   30.6998   -4.1804 C   0  0  0  0  0  0  0  0  0  0  0  0
  -92.6329   31.5667   -5.2155 C   0  0  0  0  0  0  0  0  0  0  0  0
  -91.8011   32.6001   -5.5892 C   0  0  0  0  0  0  0  0  0  0  0  0
  -90.6040   32.7768   -4.9133 C   0  0  0  0  0  0  0  0  0  0  0  0
  -90.3196   31.9026   -3.9040 C   0  0  0  0  0  0  0  0  0  0  0  0
  -89.2088   31.8542   -3.1084 C   0  0  0  0  0  0  0  0  0  0  0  0
  -88.0522   32.6063   -2.9639 C   0  0  0  0  0  0  0  0  0  0  0  0
  -87.6403   33.8012   -3.7446 C   0  0  0  0  0  0  0  0  0  0  0  0
  -86.3666   34.1749   -3.1977 N   0  0  0  0  0  0  0  0  0  0  0  0
  -86.0007   33.2810   -2.1229 C   0  0  0  0  0  0  0  0  0  0  0  0
  -84.9300   33.4555   -1.5218 O   0  0  0  0  0  0  0  0  0  0  0  0
  -87.0755   32.3331   -2.0222 C   0  0  0  0  0  0  0  0  0  0  0  0
  -87.2316   31.2541   -1.1662 C   0  0  0  0  0  0  0  0  0  0  0  0
  -86.4993   30.6541   -0.1917 C   0  0  0  0  0  0  0  0  0  0  0  0
  -85.2998   30.9263    0.3914 C   0  0  0  0  0  0  0  0  0  0  0  0
  -84.8574   30.0491    1.3983 C   0  0  0  0  0  0  0  0  0  0  0  0
  -85.5852   28.9537    1.7987 C   0  0  0  0  0  0  0  0  0  0  0  0
  -86.8051   28.6856    1.1991 C   0  0  0  0  0  0  0  0  0  0  0  0
  -87.2254   29.5569    0.2113 C   0  0  0  0  0  0  0  0  0  0  0  0
  -88.3537   29.4638   -0.4644 N   0  0  0  0  0  0  0  0  0  0  0  0
  -88.3856   30.5203   -1.3258 C   0  0  0  0  0  0  0  0  0  0  0  0
  -89.3710   30.8112   -2.2749 C   0  0  0  0  0  0  0  0  0  0  0  0
  -85.8185   34.9845   -3.5592 H   0  0  0  0  0  0  0  0  0  0  0  0
  -91.5889   24.7535   -0.0246 C   0  0  0  0  0  0  0  0  0  0  0  0
  -91.7996   26.1738   -0.2055 N   0  0  0  0  0  0  0  0  0  0  0  0
  -92.6784   26.3067   -0.7133 H   0  0  0  0  0  0  0  0  0  0  0  0
  -90.6493   27.3543   -3.2968 O   0  0  0  0  0  0  0  0  0  0  0  0
  -91.5579   26.6157   -4.0449 C   0  0  0  0  0  0  0  0  0  0  0  0
 33 34  1  0  0  0
 34  1  1  0  0  0
  1  2  1  0  0  0
  2  3  1  0  0  0
  3  4  1  0  0  0
  4  5  1  0  0  0
  5  6  1  0  0  0
  5  7  1  0  0  0
  7 36  1  0  0  0
 36 37  1  0  0  0
  5  8  1  0  0  0
  8  9  1  0  0  0
  9 10  2  0  0  0
 10 11  1  0  0  0
 11 12  2  0  0  0
 12 13  1  0  0  0
 13 14  2  0  0  0
 14 15  1  0  0  0
 15 16  2  0  0  0
 16 17  1  0  0  0
 17 18  1  0  0  0
 18 19  1  0  0  0
 19 20  2  0  0  0
 19 21  1  0  0  0
 21 22  2  0  0  0
 22 23  1  0  0  0
 23 24  2  0  0  0
 24 25  1  0  0  0
 25 26  2  0  0  0
 26 27  1  0  0  0
 27 28  2  0  0  0
 28 29  1  0  0  0
 29 30  1  0  0  0
 30 31  2  0  0  0
  7  1  1  0  0  0
 31  8  1  0  0  0
 29  3  1  0  0  0
 14  9  1  0  0  0
 31 15  1  0  0  0
 21 16  1  0  0  0
 30 22  1  0  0  0
 28 23  1  0  0  0
 34 35  1  0  0  0
 18 32  1  0  0  0
M  END
> <minimizedAffinity>
-9.67719

> <CNNscore>
0.2293712497

> <CNNaffinity>
6.1650643349

> <CNN_VS>
1.4140884876

> <CNNaffinity_variance>
0.2731546164

$$$$
[H]c1c([H])c([H])c2c(c1[H])c1c3c(c4c5c([H])c([H])c([H])c([H])c5n5c4c1n2[C@]1([H])O[C@]5(C([H])([H])[H])[C@@]([H])(OC([H])([H])[H])[C@]([H])(N([H])C([H])([H])[H])C1([H])[H])C([H])([H])N([H])C3=O


 37 44  0  0  0  0  0  0  0  0999 V2000
  -93.5945   22.1520   -2.7701 C   0  0  0  0  0  0  0  0  0  0  0  0
  -92.8312   23.4724   -3.1117 C   0  0  0  0  0  0  0  0  0  0  0  0
  -92.0488   23.6279   -1.9911 C   0  0  0  0  0  0  0  0  0  0  0  0
  -91.2304   22.5097   -1.9733 O   0  0  0  0  0  0  0  0  0  0  0  0
  -91.8125   21.6379   -0.9995 C   0  0  0  0  0  0  0  0  0  0  0  0
  -91.0124   20.3330   -1.2656 C   0  0  0  0  0  0  0  0  0  0  0  0
  -93.1906   21.5453   -1.4123 C   0  0  0  0  0  0  0  0  0  0  0  0
  -91.3721   22.1086    0.2885 N   0  0  0  0  0  0  0  0  0  0  0  0
  -91.1944   21.3323    1.4043 C   0  0  0  0  0  0  0  0  0  0  0  0
  -91.4909   20.0326    1.7004 C   0  0  0  0  0  0  0  0  0  0  0  0
  -91.1963   19.5123    2.9553 C   0  0  0  0  0  0  0  0  0  0  0  0
  -90.6026   20.2773    3.9361 C   0  0  0  0  0  0  0  0  0  0  0  0
  -90.2924   21.5998    3.6607 C   0  0  0  0  0  0  0  0  0  0  0  0
  -90.5992   22.0690    2.4158 C   0  0  0  0  0  0  0  0  0  0  0  0
  -90.4133   23.3259    1.9109 C   0  0  0  0  0  0  0  0  0  0  0  0
  -89.8577   24.5120    2.3679 C   0  0  0  0  0  0  0  0  0  0  0  0
  -89.2620   24.7834    3.7013 C   0  0  0  0  0  0  0  0  0  0  0  0
  -88.8550   26.1591    3.6476 N   0  0  0  0  0  0  0  0  0  0  0  0
  -89.1587   26.7215    2.3516 C   0  0  0  0  0  0  0  0  0  0  0  0
  -88.8688   27.9042    2.1164 O   0  0  0  0  0  0  0  0  0  0  0  0
  -89.7763   25.6624    1.6028 C   0  0  0  0  0  0  0  0  0  0  0  0
  -90.2717   25.6611    0.3082 C   0  0  0  0  0  0  0  0  0  0  0  0
  -90.4219   26.5688   -0.6914 C   0  0  0  0  0  0  0  0  0  0  0  0
  -90.0747   27.8766   -0.8397 C   0  0  0  0  0  0  0  0  0  0  0  0
  -90.4075   28.4991   -2.0566 C   0  0  0  0  0  0  0  0  0  0  0  0
  -91.0567   27.8392   -3.0730 C   0  0  0  0  0  0  0  0  0  0  0  0
  -91.4055   26.5080   -2.9121 C   0  0  0  0  0  0  0  0  0  0  0  0
  -91.0716   25.9111   -1.7106 C   0  0  0  0  0  0  0  0  0  0  0  0
  -91.3192   24.6586   -1.3814 N   0  0  0  0  0  0  0  0  0  0  0  0
  -90.8192   24.4748   -0.1262 C   0  0  0  0  0  0  0  0  0  0  0  0
  -90.8877   23.3148    0.6524 C   0  0  0  0  0  0  0  0  0  0  0  0
  -88.4085   26.6423    4.4561 H   0  0  0  0  0  0  0  0  0  0  0  0
  -94.8953   20.8332   -4.1871 C   0  0  0  0  0  0  0  0  0  0  0  0
  -93.5469   21.2399   -3.8540 N   0  0  0  0  0  0  0  0  0  0  0  0
  -93.0137   20.4052   -3.5953 H   0  0  0  0  0  0  0  0  0  0  0  0
  -94.1864   21.7191   -0.4432 O   0  0  0  0  0  0  0  0  0  0  0  0
  -95.0598   22.7633   -0.7219 C   0  0  0  0  0  0  0  0  0  0  0  0
 33 34  1  0  0  0
 34  1  1  0  0  0
  1  2  1  0  0  0
  2  3  1  0  0  0
  3  4  1  0  0  0
  4  5  1  0  0  0
  5  6  1  0  0  0
  5  7  1  0  0  0
  7 36  1  0  0  0
 36 37  1  0  0  0
  5  8  1  0  0  0
  8  9  1  0  0  0
  9 10  2  0  0  0
 10 11  1  0  0  0
 11 12  2  0  0  0
 12 13  1  0  0  0
 13 14  2  0  0  0
 14 15  1  0  0  0
 15 16  2  0  0  0
 16 17  1  0  0  0
 17 18  1  0  0  0
 18 19  1  0  0  0
 19 20  2  0  0  0
 19 21  1  0  0  0
 21 22  2  0  0  0
 22 23  1  0  0  0
 23 24  2  0  0  0
 24 25  1  0  0  0
 25 26  2  0  0  0
 26 27  1  0  0  0
 27 28  2  0  0  0
 28 29  1  0  0  0
 29 30  1  0  0  0
 30 31  2  0  0  0
  7  1  1  0  0  0
 31  8  1  0  0  0
 29  3  1  0  0  0
 14  9  1  0  0  0
 31 15  1  0  0  0
 21 16  1  0  0  0
 30 22  1  0  0  0
 28 23  1  0  0  0
 34 35  1  0  0  0
 18 32  1  0  0  0
M  END
> <minimizedAffinity>
-1.67529

> <CNNscore>
0.1945387721

> <CNNaffinity>
5.3696775436

> <CNN_VS>
1.0446105003

> <CNNaffinity_variance>
0.5482664108

$$$$
[H]c1c([H])c([H])c2c(c1[H])c1c3c(c4c5c([H])c([H])c([H])c([H])c5n5c4c1n2[C@]1([H])O[C@]5(C([H])([H])[H])[C@@]([H])(OC([H])([H])[H])[C@]([H])(N([H])C([H])([H])[H])C1([H])[H])C([H])([H])N([H])C3=O


 37 44  0  0  0  0  0  0  0  0999 V2000
  -91.8883   29.4478   -3.7330 C   0  0  0  0  0  0  0  0  0  0  0  0
  -90.9225   30.5400   -4.2961 C   0  0  0  0  0  0  0  0  0  0  0  0
  -89.8773   30.4591   -3.4055 C   0  0  0  0  0  0  0  0  0  0  0  0
  -89.3903   29.1696   -3.5480 O   0  0  0  0  0  0  0  0  0  0  0  0
  -89.9186   28.4468   -2.4319 C   0  0  0  0  0  0  0  0  0  0  0  0
  -89.5652   26.9895   -2.8386 C   0  0  0  0  0  0  0  0  0  0  0  0
  -91.3327   28.7196   -2.4937 C   0  0  0  0  0  0  0  0  0  0  0  0
  -89.0727   28.7528   -1.3070 N   0  0  0  0  0  0  0  0  0  0  0  0
  -88.8309   27.9251   -0.2413 C   0  0  0  0  0  0  0  0  0  0  0  0
  -89.3656   26.7355    0.1635 C   0  0  0  0  0  0  0  0  0  0  0  0
  -88.9156   26.1216    1.3265 C   0  0  0  0  0  0  0  0  0  0  0  0
  -87.9266   26.6819    2.1060 C   0  0  0  0  0  0  0  0  0  0  0  0
  -87.3683   27.8894    1.7172 C   0  0  0  0  0  0  0  0  0  0  0  0
  -87.8403   28.4569    0.5686 C   0  0  0  0  0  0  0  0  0  0  0  0
  -87.4708   29.6391   -0.0102 C   0  0  0  0  0  0  0  0  0  0  0  0
  -86.5387   30.6313    0.2560 C   0  0  0  0  0  0  0  0  0  0  0  0
  -85.5869   30.7039    1.3942 C   0  0  0  0  0  0  0  0  0  0  0  0
  -84.8703   31.9318    1.1949 N   0  0  0  0  0  0  0  0  0  0  0  0
  -85.3282   32.5900   -0.0073 C   0  0  0  0  0  0  0  0  0  0  0  0
  -84.8145   33.6663   -0.3473 O   0  0  0  0  0  0  0  0  0  0  0  0
  -86.3575   31.7448   -0.5458 C   0  0  0  0  0  0  0  0  0  0  0  0
  -87.1374   31.9066   -1.6802 C   0  0  0  0  0  0  0  0  0  0  0  0
  -87.2919   32.8511   -2.6445 C   0  0  0  0  0  0  0  0  0  0  0  0
  -86.6715   34.0313   -2.9187 C   0  0  0  0  0  0  0  0  0  0  0  0
  -87.1222   34.7528   -4.0391 C   0  0  0  0  0  0  0  0  0  0  0  0
  -88.1451   34.3091   -4.8434 C   0  0  0  0  0  0  0  0  0  0  0  0
  -88.7698   33.1063   -4.5559 C   0  0  0  0  0  0  0  0  0  0  0  0
  -88.3154   32.4098   -3.4514 C   0  0  0  0  0  0  0  0  0  0  0  0
  -88.7843   31.2525   -3.0282 N   0  0  0  0  0  0  0  0  0  0  0  0
  -88.0566   30.9115   -1.9265 C   0  0  0  0  0  0  0  0  0  0  0  0
  -88.2248   29.7852   -1.1143 C   0  0  0  0  0  0  0  0  0  0  0  0
  -84.1326   32.2622    1.8530 H   0  0  0  0  0  0  0  0  0  0  0  0
  -93.1931   29.3314   -5.6626 C   0  0  0  0  0  0  0  0  0  0  0  0
  -92.3394   28.5851   -4.7632 N   0  0  0  0  0  0  0  0  0  0  0  0
  -92.8839   27.8128   -4.3695 H   0  0  0  0  0  0  0  0  0  0  0  0
  -91.9843   29.1129   -1.3183 O   0  0  0  0  0  0  0  0  0  0  0  0
  -93.2822   29.5645   -1.5244 C   0  0  0  0  0  0  0  0  0  0  0  0
 33 34  1  0  0  0
 34  1  1  0  0  0
  1  2  1  0  0  0
  2  3  1  0  0  0
  3  4  1  0  0  0
  4  5  1  0  0  0
  5  6  1  0  0  0
  5  7  1  0  0  0
  7 36  1  0  0  0
 36 37  1  0  0  0
  5  8  1  0  0  0
  8  9  1  0  0  0
  9 10  2  0  0  0
 10 11  1  0  0  0
 11 12  2  0  0  0
 12 13  1  0  0  0
 13 14  2  0  0  0
 14 15  1  0  0  0
 15 16  2  0  0  0
 16 17  1  0  0  0
 17 18  1  0  0  0
 18 19  1  0  0  0
 19 20  2  0  0  0
 19 21  1  0  0  0
 21 22  2  0  0  0
 22 23  1  0  0  0
 23 24  2  0  0  0
 24 25  1  0  0  0
 25 26  2  0  0  0
 26 27  1  0  0  0
 27 28  2  0  0  0
 28 29  1  0  0  0
 29 30  1  0  0  0
 30 31  2  0  0  0
  7  1  1  0  0  0
 31  8  1  0  0  0
 29  3  1  0  0  0
 14  9  1  0  0  0
 31 15  1  0  0  0
 21 16  1  0  0  0
 30 22  1  0  0  0
 28 23  1  0  0  0
 34 35  1  0  0  0
 18 32  1  0  0  0
M  END
> <minimizedAffinity>
-10.09970

> <CNNscore>
0.1263906658

> <CNNaffinity>
6.1920766830

> <CNN_VS>
0.7826206684

> <CNNaffinity_variance>
0.2120238841

$$$$
[H]c1c([H])c([H])c2c(c1[H])c1c3c(c4c5c([H])c([H])c([H])c([H])c5n5c4c1n2[C@]1([H])O[C@]5(C([H])([H])[H])[C@@]([H])(OC([H])([H])[H])[C@]([H])(N([H])C([H])([H])[H])C1([H])[H])C([H])([H])N([H])C3=O


 37 44  0  0  0  0  0  0  0  0999 V2000
  -88.5025   33.6387   -3.1999 C   0  0  0  0  0  0  0  0  0  0  0  0
  -89.7116   32.7799   -2.7065 C   0  0  0  0  0  0  0  0  0  0  0  0
  -89.0941   31.9344   -1.8144 C   0  0  0  0  0  0  0  0  0  0  0  0
  -88.5778   32.7688   -0.8358 O   0  0  0  0  0  0  0  0  0  0  0  0
  -87.1833   32.8776   -1.1372 C   0  0  0  0  0  0  0  0  0  0  0  0
  -86.7718   34.0346   -0.1854 C   0  0  0  0  0  0  0  0  0  0  0  0
  -87.1686   33.2616   -2.5265 C   0  0  0  0  0  0  0  0  0  0  0  0
  -86.5551   31.6951   -0.6064 N   0  0  0  0  0  0  0  0  0  0  0  0
  -85.2616   31.6100   -0.1603 C   0  0  0  0  0  0  0  0  0  0  0  0
  -84.1949   32.4612   -0.2065 C   0  0  0  0  0  0  0  0  0  0  0  0
  -82.9703   32.0842    0.3325 C   0  0  0  0  0  0  0  0  0  0  0  0
  -82.7874   30.8536    0.9256 C   0  0  0  0  0  0  0  0  0  0  0  0
  -83.8545   29.9710    0.9843 C   0  0  0  0  0  0  0  0  0  0  0  0
  -85.0383   30.3825    0.4427 C   0  0  0  0  0  0  0  0  0  0  0  0
  -86.2189   29.6982    0.3593 C   0  0  0  0  0  0  0  0  0  0  0  0
  -86.6863   28.4611    0.7783 C   0  0  0  0  0  0  0  0  0  0  0  0
  -85.9352   27.4009    1.4983 C   0  0  0  0  0  0  0  0  0  0  0  0
  -86.8817   26.3359    1.6733 N   0  0  0  0  0  0  0  0  0  0  0  0
  -88.1616   26.7055    1.1132 C   0  0  0  0  0  0  0  0  0  0  0  0
  -89.1097   25.9089    1.1795 O   0  0  0  0  0  0  0  0  0  0  0  0
  -87.9839   28.0252    0.5742 C   0  0  0  0  0  0  0  0  0  0  0  0
  -88.8866   28.8450   -0.0848 C   0  0  0  0  0  0  0  0  0  0  0  0
  -90.1741   28.7541   -0.5090 C   0  0  0  0  0  0  0  0  0  0  0  0
  -91.1414   27.8032   -0.3945 C   0  0  0  0  0  0  0  0  0  0  0  0
  -92.3898   28.0779   -0.9819 C   0  0  0  0  0  0  0  0  0  0  0  0
  -92.6519   29.2503   -1.6505 C   0  0  0  0  0  0  0  0  0  0  0  0
  -91.6606   30.2119   -1.7612 C   0  0  0  0  0  0  0  0  0  0  0  0
  -90.4396   29.9264   -1.1788 C   0  0  0  0  0  0  0  0  0  0  0  0
  -89.3854   30.7182   -1.1801 N   0  0  0  0  0  0  0  0  0  0  0  0
  -88.4033   30.0680   -0.4928 C   0  0  0  0  0  0  0  0  0  0  0  0
  -87.0922   30.5025   -0.2728 C   0  0  0  0  0  0  0  0  0  0  0  0
  -86.6341   25.4390    2.1433 H   0  0  0  0  0  0  0  0  0  0  0  0
  -88.4533   35.6229   -4.4245 C   0  0  0  0  0  0  0  0  0  0  0  0
  -88.8075   35.0222   -3.1564 N   0  0  0  0  0  0  0  0  0  0  0  0
  -88.2674   35.4839   -2.4195 H   0  0  0  0  0  0  0  0  0  0  0  0
  -86.3190   32.5683   -3.3974 O   0  0  0  0  0  0  0  0  0  0  0  0
  -86.9872   31.9137   -4.4251 C   0  0  0  0  0  0  0  0  0  0  0  0
 33 34  1  0  0  0
 34  1  1  0  0  0
  1  2  1  0  0  0
  2  3  1  0  0  0
  3  4  1  0  0  0
  4  5  1  0  0  0
  5  6  1  0  0  0
  5  7  1  0  0  0
  7 36  1  0  0  0
 36 37  1  0  0  0
  5  8  1  0  0  0
  8  9  1  0  0  0
  9 10  2  0  0  0
 10 11  1  0  0  0
 11 12  2  0  0  0
 12 13  1  0  0  0
 13 14  2  0  0  0
 14 15  1  0  0  0
 15 16  2  0  0  0
 16 17  1  0  0  0
 17 18  1  0  0  0
 18 19  1  0  0  0
 19 20  2  0  0  0
 19 21  1  0  0  0
 21 22  2  0  0  0
 22 23  1  0  0  0
 23 24  2  0  0  0
 24 25  1  0  0  0
 25 26  2  0  0  0
 26 27  1  0  0  0
 27 28  2  0  0  0
 28 29  1  0  0  0
 29 30  1  0  0  0
 30 31  2  0  0  0
  7  1  1  0  0  0
 31  8  1  0  0  0
 29  3  1  0  0  0
 14  9  1  0  0  0
 31 15  1  0  0  0
 21 16  1  0  0  0
 30 22  1  0  0  0
 28 23  1  0  0  0
 34 35  1  0  0  0
 18 32  1  0  0  0
M  END
> <minimizedAffinity>
-9.25318

> <CNNscore>
0.0910033435

> <CNNaffinity>
6.2155551910

> <CNN_VS>
0.5656362772

> <CNNaffinity_variance>
0.2514837384

$$$$
[H]Oc1c([H])c([H])c(N([H])c2nc([H])c3nnn(-c4c([H])c([H])c(OC([H])([H])C([H])([H])N5C([H])([H])C([H])([H])OC([H])([H])C5([H])[H])c([H])c4[H])c3n2)c([H])c1[H]


 34 38  0  0  0  0  0  0  0  0999 V2000
  -84.7200   29.7010    0.8758 C   0  0  0  0  0  0  0  0  0  0  0  0
  -83.4487   29.9444    1.2835 N   0  0  0  0  0  0  0  0  0  0  0  0
  -82.7637   31.0545    1.0146 C   0  0  0  0  0  0  0  0  0  0  0  0
  -83.3702   32.0423    0.2692 C   0  0  0  0  0  0  0  0  0  0  0  0
  -83.0289   33.2506   -0.1931 N   0  0  0  0  0  0  0  0  0  0  0  0
  -84.0525   33.7471   -0.8681 N   0  0  0  0  0  0  0  0  0  0  0  0
  -85.0657   32.8737   -0.8527 N   0  0  0  0  0  0  0  0  0  0  0  0
  -84.6718   31.7975   -0.1502 C   0  0  0  0  0  0  0  0  0  0  0  0
  -85.3074   30.6551    0.1552 N   0  0  0  0  0  0  0  0  0  0  0  0
  -86.3314   33.0594   -1.4727 C   0  0  0  0  0  0  0  0  0  0  0  0
  -87.5322   32.8443   -0.8358 C   0  0  0  0  0  0  0  0  0  0  0  0
  -88.7100   33.0536   -1.5230 C   0  0  0  0  0  0  0  0  0  0  0  0
  -88.7656   33.4733   -2.8353 C   0  0  0  0  0  0  0  0  0  0  0  0
  -87.5444   33.6883   -3.4718 C   0  0  0  0  0  0  0  0  0  0  0  0
  -86.3692   33.4799   -2.7862 C   0  0  0  0  0  0  0  0  0  0  0  0
  -89.9550   33.6788   -3.5104 O   0  0  0  0  0  0  0  0  0  0  0  0
  -90.1084   33.1920   -4.8105 C   0  0  0  0  0  0  0  0  0  0  0  0
  -90.3133   34.2707   -5.8331 C   0  0  0  0  0  0  0  0  0  0  0  0
  -91.1188   33.9055   -6.9331 N   0  0  0  0  0  0  0  0  0  0  0  0
  -92.4133   33.4032   -6.6507 C   0  0  0  0  0  0  0  0  0  0  0  0
  -93.3362   34.6117   -6.4549 C   0  0  0  0  0  0  0  0  0  0  0  0
  -93.0372   35.6135   -7.3541 O   0  0  0  0  0  0  0  0  0  0  0  0
  -92.4019   35.1486   -8.4990 C   0  0  0  0  0  0  0  0  0  0  0  0
  -90.9906   34.6932   -8.1081 C   0  0  0  0  0  0  0  0  0  0  0  0
  -85.3215   28.4896    1.2452 N   0  0  0  0  0  0  0  0  0  0  0  0
  -84.6599   27.7590    1.7057 H   0  0  0  0  0  0  0  0  0  0  0  0
  -90.6144   26.7642    0.5801 O   0  0  0  0  0  0  0  0  0  0  0  0
  -89.2919   27.1907    0.7433 C   0  0  0  0  0  0  0  0  0  0  0  0
  -88.4487   27.3636   -0.3359 C   0  0  0  0  0  0  0  0  0  0  0  0
  -87.1489   27.7853   -0.1482 C   0  0  0  0  0  0  0  0  0  0  0  0
  -86.6317   28.0530    1.1184 C   0  0  0  0  0  0  0  0  0  0  0  0
  -87.4744   27.8783    2.1713 C   0  0  0  0  0  0  0  0  0  0  0  0
  -88.8022   27.4495    2.0032 C   0  0  0  0  0  0  0  0  0  0  0  0
  -91.3271   27.4869    0.4552 H   0  0  0  0  0  0  0  0  0  0  0  0
 27 28  1  0  0  0
 28 29  2  0  0  0
 29 30  1  0  0  0
 30 31  2  0  0  0
 31 25  1  0  0  0
 25  1  1  0  0  0
  1  2  2  0  0  0
  2  3  1  0  0  0
  3  4  2  0  0  0
  4  5  1  0  0  0
  5  6  2  0  0  0
  6  7  1  0  0  0
  7 10  1  0  0  0
 10 11  2  0  0  0
 11 12  1  0  0  0
 12 13  2  0  0  0
 13 16  1  0  0  0
 16 17  1  0  0  0
 17 18  1  0  0  0
 18 19  1  0  0  0
 19 20  1  0  0  0
 20 21  1  0  0  0
 21 22  1  0  0  0
 22 23  1  0  0  0
 23 24  1  0  0  0
 13 14  1  0  0  0
 14 15  2  0  0  0
  7  8  1  0  0  0
  8  9  2  0  0  0
 31 32  1  0  0  0
 32 33  2  0  0  0
 33 28  1  0  0  0
  9  1  1  0  0  0
  8  4  1  0  0  0
 15 10  1  0  0  0
 24 19  1  0  0  0
 27 34  1  0  0  0
 25 26  1  0  0  0
M  END
> <minimizedAffinity>
-7.78392

> <CNNscore>
0.8007032275

> <CNNaffinity>
6.9091911316

> <CNN_VS>
5.5322117805

> <CNNaffinity_variance>
0.0635344386

$$$$
[H]Oc1c([H])c([H])c(N([H])c2nc([H])c3nnn(-c4c([H])c([H])c(OC([H])([H])C([H])([H])N5C([H])([H])C([H])([H])OC([H])([H])C5([H])[H])c([H])c4[H])c3n2)c([H])c1[H]


 34 38  0  0  0  0  0  0  0  0999 V2000
  -84.5793   32.7723   -0.6516 C   0  0  0  0  0  0  0  0  0  0  0  0
  -83.2560   32.9645   -0.4197 N   0  0  0  0  0  0  0  0  0  0  0  0
  -82.4805   32.1421    0.2847 C   0  0  0  0  0  0  0  0  0  0  0  0
  -83.0414   31.0063    0.8276 C   0  0  0  0  0  0  0  0  0  0  0  0
  -82.6139   29.9769    1.5676 N   0  0  0  0  0  0  0  0  0  0  0  0
  -83.6357   29.1672    1.7918 N   0  0  0  0  0  0  0  0  0  0  0  0
  -84.7330   29.6567    1.2038 N   0  0  0  0  0  0  0  0  0  0  0  0
  -84.3958   30.8054    0.5926 C   0  0  0  0  0  0  0  0  0  0  0  0
  -85.1226   31.6747   -0.1274 N   0  0  0  0  0  0  0  0  0  0  0  0
  -86.0234   29.0605    1.2267 C   0  0  0  0  0  0  0  0  0  0  0  0
  -86.5132   28.3415    2.2929 C   0  0  0  0  0  0  0  0  0  0  0  0
  -87.7807   27.8017    2.2205 C   0  0  0  0  0  0  0  0  0  0  0  0
  -88.6083   27.9375    1.1260 C   0  0  0  0  0  0  0  0  0  0  0  0
  -88.1035   28.6672    0.0511 C   0  0  0  0  0  0  0  0  0  0  0  0
  -86.8390   29.2061    0.1235 C   0  0  0  0  0  0  0  0  0  0  0  0
  -89.8771   27.3901    1.0689 O   0  0  0  0  0  0  0  0  0  0  0  0
  -90.1425   26.3438    0.1826 C   0  0  0  0  0  0  0  0  0  0  0  0
  -90.9474   25.2334    0.7914 C   0  0  0  0  0  0  0  0  0  0  0  0
  -90.2244   24.3674    1.6394 N   0  0  0  0  0  0  0  0  0  0  0  0
  -89.8007   24.8865    2.8880 C   0  0  0  0  0  0  0  0  0  0  0  0
  -90.9797   24.7528    3.8587 C   0  0  0  0  0  0  0  0  0  0  0  0
  -91.6484   23.5625    3.6641 O   0  0  0  0  0  0  0  0  0  0  0  0
  -90.8599   22.5830    3.0733 C   0  0  0  0  0  0  0  0  0  0  0  0
  -90.5968   22.9967    1.6201 C   0  0  0  0  0  0  0  0  0  0  0  0
  -85.2682   33.7182   -1.4237 N   0  0  0  0  0  0  0  0  0  0  0  0
  -84.6991   34.6043   -1.6972 H   0  0  0  0  0  0  0  0  0  0  0  0
  -90.5007   33.8708   -3.4318 O   0  0  0  0  0  0  0  0  0  0  0  0
  -89.1932   33.8317   -2.9354 C   0  0  0  0  0  0  0  0  0  0  0  0
  -88.1800   34.5764   -3.5051 C   0  0  0  0  0  0  0  0  0  0  0  0
  -86.8990   34.5203   -2.9966 C   0  0  0  0  0  0  0  0  0  0  0  0
  -86.5701   33.7227   -1.9016 C   0  0  0  0  0  0  0  0  0  0  0  0
  -87.5787   32.9952   -1.3514 C   0  0  0  0  0  0  0  0  0  0  0  0
  -88.8909   33.0371   -1.8530 C   0  0  0  0  0  0  0  0  0  0  0  0
  -91.1307   34.5725   -3.0359 H   0  0  0  0  0  0  0  0  0  0  0  0
 27 28  1  0  0  0
 28 29  2  0  0  0
 29 30  1  0  0  0
 30 31  2  0  0  0
 31 25  1  0  0  0
 25  1  1  0  0  0
  1  2  2  0  0  0
  2  3  1  0  0  0
  3  4  2  0  0  0
  4  5  1  0  0  0
  5  6  2  0  0  0
  6  7  1  0  0  0
  7 10  1  0  0  0
 10 11  2  0  0  0
 11 12  1  0  0  0
 12 13  2  0  0  0
 13 16  1  0  0  0
 16 17  1  0  0  0
 17 18  1  0  0  0
 18 19  1  0  0  0
 19 20  1  0  0  0
 20 21  1  0  0  0
 21 22  1  0  0  0
 22 23  1  0  0  0
 23 24  1  0  0  0
 13 14  1  0  0  0
 14 15  2  0  0  0
  7  8  1  0  0  0
  8  9  2  0  0  0
 31 32  1  0  0  0
 32 33  2  0  0  0
 33 28  1  0  0  0
  9  1  1  0  0  0
  8  4  1  0  0  0
 15 10  1  0  0  0
 24 19  1  0  0  0
 27 34  1  0  0  0
 25 26  1  0  0  0
M  END
> <minimizedAffinity>
-9.13320

> <CNNscore>
0.7398574352

> <CNNaffinity>
7.0891914368

> <CNN_VS>
5.2449908257

> <CNNaffinity_variance>
0.1326748878

$$$$
[H]Oc1c([H])c([H])c(N([H])c2nc([H])c3nnn(-c4c([H])c([H])c(OC([H])([H])C([H])([H])N5C([H])([H])C([H])([H])OC([H])([H])C5([H])[H])c([H])c4[H])c3n2)c([H])c1[H]


 34 38  0  0  0  0  0  0  0  0999 V2000
  -84.8031   31.1324    1.0033 C   0  0  0  0  0  0  0  0  0  0  0  0
  -83.5069   31.0624    1.3991 N   0  0  0  0  0  0  0  0  0  0  0  0
  -82.9223   29.9748    1.8984 C   0  0  0  0  0  0  0  0  0  0  0  0
  -83.6692   28.8242    2.0322 C   0  0  0  0  0  0  0  0  0  0  0  0
  -83.4549   27.5794    2.4734 N   0  0  0  0  0  0  0  0  0  0  0  0
  -84.5799   26.8930    2.3580 N   0  0  0  0  0  0  0  0  0  0  0  0
  -85.5331   27.6777    1.8431 N   0  0  0  0  0  0  0  0  0  0  0  0
  -84.9967   28.8912    1.6281 C   0  0  0  0  0  0  0  0  0  0  0  0
  -85.5261   30.0209    1.1321 N   0  0  0  0  0  0  0  0  0  0  0  0
  -86.8737   27.2883    1.5746 C   0  0  0  0  0  0  0  0  0  0  0  0
  -87.2431   26.5170    0.4965 C   0  0  0  0  0  0  0  0  0  0  0  0
  -88.5720   26.1900    0.3216 C   0  0  0  0  0  0  0  0  0  0  0  0
  -89.5776   26.5937    1.1744 C   0  0  0  0  0  0  0  0  0  0  0  0
  -89.1936   27.3745    2.2632 C   0  0  0  0  0  0  0  0  0  0  0  0
  -87.8678   27.7006    2.4380 C   0  0  0  0  0  0  0  0  0  0  0  0
  -90.9056   26.2571    0.9852 O   0  0  0  0  0  0  0  0  0  0  0  0
  -91.3995   26.0809   -0.3092 C   0  0  0  0  0  0  0  0  0  0  0  0
  -92.6179   25.2075   -0.3712 C   0  0  0  0  0  0  0  0  0  0  0  0
  -92.9251   24.7010   -1.6522 N   0  0  0  0  0  0  0  0  0  0  0  0
  -94.2946   24.6221   -2.0073 C   0  0  0  0  0  0  0  0  0  0  0  0
  -94.7104   26.0051   -2.5219 C   0  0  0  0  0  0  0  0  0  0  0  0
  -93.7099   26.5708   -3.2840 O   0  0  0  0  0  0  0  0  0  0  0  0
  -92.8467   25.6327   -3.8362 C   0  0  0  0  0  0  0  0  0  0  0  0
  -92.0197   25.0201   -2.6992 C   0  0  0  0  0  0  0  0  0  0  0  0
  -85.2802   32.3440    0.4836 N   0  0  0  0  0  0  0  0  0  0  0  0
  -84.9784   33.2377    1.0257 H   0  0  0  0  0  0  0  0  0  0  0  0
  -88.6337   33.2766   -3.9116 O   0  0  0  0  0  0  0  0  0  0  0  0
  -87.8005   33.0457   -2.8116 C   0  0  0  0  0  0  0  0  0  0  0  0
  -88.2291   32.3196   -1.7186 C   0  0  0  0  0  0  0  0  0  0  0  0
  -87.3880   32.1059   -0.6465 C   0  0  0  0  0  0  0  0  0  0  0  0
  -86.0863   32.6038   -0.6145 C   0  0  0  0  0  0  0  0  0  0  0  0
  -85.6786   33.3168   -1.6984 C   0  0  0  0  0  0  0  0  0  0  0  0
  -86.5187   33.5467   -2.8013 C   0  0  0  0  0  0  0  0  0  0  0  0
  -88.6087   32.5906   -4.6698 H   0  0  0  0  0  0  0  0  0  0  0  0
 27 28  1  0  0  0
 28 29  2  0  0  0
 29 30  1  0  0  0
 30 31  2  0  0  0
 31 25  1  0  0  0
 25  1  1  0  0  0
  1  2  2  0  0  0
  2  3  1  0  0  0
  3  4  2  0  0  0
  4  5  1  0  0  0
  5  6  2  0  0  0
  6  7  1  0  0  0
  7 10  1  0  0  0
 10 11  2  0  0  0
 11 12  1  0  0  0
 12 13  2  0  0  0
 13 16  1  0  0  0
 16 17  1  0  0  0
 17 18  1  0  0  0
 18 19  1  0  0  0
 19 20  1  0  0  0
 20 21  1  0  0  0
 21 22  1  0  0  0
 22 23  1  0  0  0
 23 24  1  0  0  0
 13 14  1  0  0  0
 14 15  2  0  0  0
  7  8  1  0  0  0
  8  9  2  0  0  0
 31 32  1  0  0  0
 32 33  2  0  0  0
 33 28  1  0  0  0
  9  1  1  0  0  0
  8  4  1  0  0  0
 15 10  1  0  0  0
 24 19  1  0  0  0
 27 34  1  0  0  0
 25 26  1  0  0  0
M  END
> <minimizedAffinity>
-8.03653

> <CNNscore>
0.6193535924

> <CNNaffinity>
6.8521947861

> <CNN_VS>
4.2439312935

> <CNNaffinity_variance>
0.0225521810

$$$$
[H]Oc1c([H])c([H])c(N([H])c2nc([H])c3nnn(-c4c([H])c([H])c(OC([H])([H])C([H])([H])N5C([H])([H])C([H])([H])OC([H])([H])C5([H])[H])c([H])c4[H])c3n2)c([H])c1[H]


 34 38  0  0  0  0  0  0  0  0999 V2000
  -85.9397   27.4893    1.6590 C   0  0  0  0  0  0  0  0  0  0  0  0
  -84.8541   27.0359    2.3355 N   0  0  0  0  0  0  0  0  0  0  0  0
  -83.7228   27.7186    2.5023 C   0  0  0  0  0  0  0  0  0  0  0  0
  -83.6245   28.9803    1.9565 C   0  0  0  0  0  0  0  0  0  0  0  0
  -82.6947   29.9411    1.9059 N   0  0  0  0  0  0  0  0  0  0  0  0
  -83.1820   30.9620    1.2202 N   0  0  0  0  0  0  0  0  0  0  0  0
  -84.4267   30.6798    0.8195 N   0  0  0  0  0  0  0  0  0  0  0  0
  -84.7335   29.4486    1.2631 C   0  0  0  0  0  0  0  0  0  0  0  0
  -85.8459   28.7087    1.1310 N   0  0  0  0  0  0  0  0  0  0  0  0
  -85.2684   31.5365    0.0589 C   0  0  0  0  0  0  0  0  0  0  0  0
  -84.8358   32.6990   -0.5369 C   0  0  0  0  0  0  0  0  0  0  0  0
  -85.7300   33.4640   -1.2570 C   0  0  0  0  0  0  0  0  0  0  0  0
  -87.0585   33.1341   -1.4232 C   0  0  0  0  0  0  0  0  0  0  0  0
  -87.4872   31.9550   -0.8159 C   0  0  0  0  0  0  0  0  0  0  0  0
  -86.5951   31.1915   -0.0978 C   0  0  0  0  0  0  0  0  0  0  0  0
  -87.9425   33.9119   -2.1485 O   0  0  0  0  0  0  0  0  0  0  0  0
  -87.4543   34.8769   -3.0323 C   0  0  0  0  0  0  0  0  0  0  0  0
  -87.7329   34.5644   -4.4732 C   0  0  0  0  0  0  0  0  0  0  0  0
  -87.5084   35.6310   -5.3697 N   0  0  0  0  0  0  0  0  0  0  0  0
  -88.5153   35.8926   -6.3319 C   0  0  0  0  0  0  0  0  0  0  0  0
  -89.5753   36.7677   -5.6528 C   0  0  0  0  0  0  0  0  0  0  0  0
  -88.9895   37.7004   -4.8230 O   0  0  0  0  0  0  0  0  0  0  0  0
  -87.6762   37.9923   -5.1700 C   0  0  0  0  0  0  0  0  0  0  0  0
  -86.8168   36.7611   -4.8576 C   0  0  0  0  0  0  0  0  0  0  0  0
  -87.0694   26.6633    1.5747 N   0  0  0  0  0  0  0  0  0  0  0  0
  -87.0983   25.9946    0.7170 H   0  0  0  0  0  0  0  0  0  0  0  0
  -91.5608   26.3741    4.9180 O   0  0  0  0  0  0  0  0  0  0  0  0
  -90.4431   26.4473    4.0797 C   0  0  0  0  0  0  0  0  0  0  0  0
  -90.2185   27.5398    3.2664 C   0  0  0  0  0  0  0  0  0  0  0  0
  -89.1086   27.5877    2.4490 C   0  0  0  0  0  0  0  0  0  0  0  0
  -88.1751   26.5532    2.4046 C   0  0  0  0  0  0  0  0  0  0  0  0
  -88.4100   25.4841    3.2114 C   0  0  0  0  0  0  0  0  0  0  0  0
  -89.5341   25.4142    4.0520 C   0  0  0  0  0  0  0  0  0  0  0  0
  -91.4604   26.7462    5.8653 H   0  0  0  0  0  0  0  0  0  0  0  0
 27 28  1  0  0  0
 28 29  2  0  0  0
 29 30  1  0  0  0
 30 31  2  0  0  0
 31 25  1  0  0  0
 25  1  1  0  0  0
  1  2  2  0  0  0
  2  3  1  0  0  0
  3  4  2  0  0  0
  4  5  1  0  0  0
  5  6  2  0  0  0
  6  7  1  0  0  0
  7 10  1  0  0  0
 10 11  2  0  0  0
 11 12  1  0  0  0
 12 13  2  0  0  0
 13 16  1  0  0  0
 16 17  1  0  0  0
 17 18  1  0  0  0
 18 19  1  0  0  0
 19 20  1  0  0  0
 20 21  1  0  0  0
 21 22  1  0  0  0
 22 23  1  0  0  0
 23 24  1  0  0  0
 13 14  1  0  0  0
 14 15  2  0  0  0
  7  8  1  0  0  0
  8  9  2  0  0  0
 31 32  1  0  0  0
 32 33  2  0  0  0
 33 28  1  0  0  0
  9  1  1  0  0  0
  8  4  1  0  0  0
 15 10  1  0  0  0
 24 19  1  0  0  0
 27 34  1  0  0  0
 25 26  1  0  0  0
M  END
> <minimizedAffinity>
-8.99309

> <CNNscore>
0.6038854718

> <CNNaffinity>
6.8777604103

> <CNN_VS>
4.1533794403

> <CNNaffinity_variance>
0.1536281258

$$$$
[H]Oc1c([H])c([H])c(N([H])c2nc([H])c3nnn(-c4c([H])c([H])c(OC([H])([H])C([H])([H])N5C([H])([H])C([H])([H])OC([H])([H])C5([H])[H])c([H])c4[H])c3n2)c([H])c1[H]


 34 38  0  0  0  0  0  0  0  0999 V2000
  -85.3966   28.7076    1.5353 C   0  0  0  0  0  0  0  0  0  0  0  0
  -84.1464   28.5699    2.0449 N   0  0  0  0  0  0  0  0  0  0  0  0
  -83.1637   29.4567    1.8976 C   0  0  0  0  0  0  0  0  0  0  0  0
  -83.4116   30.6060    1.1784 C   0  0  0  0  0  0  0  0  0  0  0  0
  -82.7150   31.6910    0.8212 N   0  0  0  0  0  0  0  0  0  0  0  0
  -83.5029   32.4816    0.1112 N   0  0  0  0  0  0  0  0  0  0  0  0
  -84.7139   31.9243   -0.0009 N   0  0  0  0  0  0  0  0  0  0  0  0
  -84.6902   30.7512    0.6549 C   0  0  0  0  0  0  0  0  0  0  0  0
  -85.6375   29.8181    0.8400 N   0  0  0  0  0  0  0  0  0  0  0  0
  -85.8234   32.4814   -0.6933 C   0  0  0  0  0  0  0  0  0  0  0  0
  -85.7081   33.4406   -1.6733 C   0  0  0  0  0  0  0  0  0  0  0  0
  -86.8460   33.9193   -2.2893 C   0  0  0  0  0  0  0  0  0  0  0  0
  -88.1200   33.4910   -1.9815 C   0  0  0  0  0  0  0  0  0  0  0  0
  -88.2266   32.5195   -0.9878 C   0  0  0  0  0  0  0  0  0  0  0  0
  -87.0914   32.0416   -0.3733 C   0  0  0  0  0  0  0  0  0  0  0  0
  -89.2511   33.9809   -2.6087 O   0  0  0  0  0  0  0  0  0  0  0  0
  -89.1297   34.9755   -3.5816 C   0  0  0  0  0  0  0  0  0  0  0  0
  -89.5654   34.5329   -4.9475 C   0  0  0  0  0  0  0  0  0  0  0  0
  -90.7523   35.1333   -5.4195 N   0  0  0  0  0  0  0  0  0  0  0  0
  -90.7337   35.6613   -6.7343 C   0  0  0  0  0  0  0  0  0  0  0  0
  -91.0131   34.4988   -7.6940 C   0  0  0  0  0  0  0  0  0  0  0  0
  -91.9698   33.6501   -7.1781 O   0  0  0  0  0  0  0  0  0  0  0  0
  -92.8014   34.2639   -6.2496 C   0  0  0  0  0  0  0  0  0  0  0  0
  -91.9758   34.5536   -4.9900 C   0  0  0  0  0  0  0  0  0  0  0  0
  -86.3354   27.6959    1.7818 N   0  0  0  0  0  0  0  0  0  0  0  0
  -85.9699   26.8468    2.3556 H   0  0  0  0  0  0  0  0  0  0  0  0
  -91.7545   27.2067    0.4297 O   0  0  0  0  0  0  0  0  0  0  0  0
  -90.4033   27.3329    0.7700 C   0  0  0  0  0  0  0  0  0  0  0  0
  -89.9937   27.4267    2.0849 C   0  0  0  0  0  0  0  0  0  0  0  0
  -88.6551   27.5503    2.3940 C   0  0  0  0  0  0  0  0  0  0  0  0
  -87.6672   27.5860    1.4110 C   0  0  0  0  0  0  0  0  0  0  0  0
  -88.0864   27.4925    0.1207 C   0  0  0  0  0  0  0  0  0  0  0  0
  -89.4447   27.3660   -0.2170 C   0  0  0  0  0  0  0  0  0  0  0  0
  -92.1317   26.2590    0.3552 H   0  0  0  0  0  0  0  0  0  0  0  0
 27 28  1  0  0  0
 28 29  2  0  0  0
 29 30  1  0  0  0
 30 31  2  0  0  0
 31 25  1  0  0  0
 25  1  1  0  0  0
  1  2  2  0  0  0
  2  3  1  0  0  0
  3  4  2  0  0  0
  4  5  1  0  0  0
  5  6  2  0  0  0
  6  7  1  0  0  0
  7 10  1  0  0  0
 10 11  2  0  0  0
 11 12  1  0  0  0
 12 13  2  0  0  0
 13 16  1  0  0  0
 16 17  1  0  0  0
 17 18  1  0  0  0
 18 19  1  0  0  0
 19 20  1  0  0  0
 20 21  1  0  0  0
 21 22  1  0  0  0
 22 23  1  0  0  0
 23 24  1  0  0  0
 13 14  1  0  0  0
 14 15  2  0  0  0
  7  8  1  0  0  0
  8  9  2  0  0  0
 31 32  1  0  0  0
 32 33  2  0  0  0
 33 28  1  0  0  0
  9  1  1  0  0  0
  8  4  1  0  0  0
 15 10  1  0  0  0
 24 19  1  0  0  0
 27 34  1  0  0  0
 25 26  1  0  0  0
M  END
> <minimizedAffinity>
-8.03067

> <CNNscore>
0.5774933100

> <CNNaffinity>
6.8172302246

> <CNN_VS>
3.9369049072

> <CNNaffinity_variance>
0.1007522121

$$$$
[H]Oc1c([H])c([H])c(N([H])c2nc([H])c3nnn(-c4c([H])c([H])c(OC([H])([H])C([H])([H])N5C([H])([H])C([H])([H])OC([H])([H])C5([H])[H])c([H])c4[H])c3n2)c([H])c1[H]


 34 38  0  0  0  0  0  0  0  0999 V2000
  -84.5432   32.3647   -0.2165 C   0  0  0  0  0  0  0  0  0  0  0  0
  -83.2548   32.6109    0.1314 N   0  0  0  0  0  0  0  0  0  0  0  0
  -82.4781   31.7714    0.8139 C   0  0  0  0  0  0  0  0  0  0  0  0
  -82.9998   30.5577    1.2063 C   0  0  0  0  0  0  0  0  0  0  0  0
  -82.5584   29.4886    1.8789 N   0  0  0  0  0  0  0  0  0  0  0  0
  -83.5381   28.6026    1.9500 N   0  0  0  0  0  0  0  0  0  0  0  0
  -84.6215   29.0812    1.3281 N   0  0  0  0  0  0  0  0  0  0  0  0
  -84.3185   30.3013    0.8523 C   0  0  0  0  0  0  0  0  0  0  0  0
  -85.0487   31.1918    0.1623 N   0  0  0  0  0  0  0  0  0  0  0  0
  -85.8685   28.4111    1.1987 C   0  0  0  0  0  0  0  0  0  0  0  0
  -86.8851   28.8421    0.3775 C   0  0  0  0  0  0  0  0  0  0  0  0
  -88.0601   28.1215    0.3192 C   0  0  0  0  0  0  0  0  0  0  0  0
  -88.2891   26.9720    1.0456 C   0  0  0  0  0  0  0  0  0  0  0  0
  -87.2537   26.5434    1.8745 C   0  0  0  0  0  0  0  0  0  0  0  0
  -86.0813   27.2622    1.9325 C   0  0  0  0  0  0  0  0  0  0  0  0
  -89.4730   26.2606    0.9760 O   0  0  0  0  0  0  0  0  0  0  0  0
  -90.4040   26.5581   -0.0217 C   0  0  0  0  0  0  0  0  0  0  0  0
  -91.6027   25.6556   -0.0101 C   0  0  0  0  0  0  0  0  0  0  0  0
  -91.9194   25.0676   -1.2534 N   0  0  0  0  0  0  0  0  0  0  0  0
  -90.8524   24.8561   -2.1616 C   0  0  0  0  0  0  0  0  0  0  0  0
  -90.1835   23.5318   -1.7753 C   0  0  0  0  0  0  0  0  0  0  0  0
  -91.1224   22.5941   -1.4001 O   0  0  0  0  0  0  0  0  0  0  0  0
  -92.3822   22.8386   -1.9327 C   0  0  0  0  0  0  0  0  0  0  0  0
  -92.9507   24.0908   -1.2538 C   0  0  0  0  0  0  0  0  0  0  0  0
  -85.2372   33.3387   -0.9482 N   0  0  0  0  0  0  0  0  0  0  0  0
  -84.7178   34.2858   -1.0783 H   0  0  0  0  0  0  0  0  0  0  0  0
  -90.3573   33.1080   -3.2209 O   0  0  0  0  0  0  0  0  0  0  0  0
  -89.0815   33.1684   -2.6499 C   0  0  0  0  0  0  0  0  0  0  0  0
  -88.8596   32.8138   -1.3344 C   0  0  0  0  0  0  0  0  0  0  0  0
  -87.5920   32.8821   -0.7951 C   0  0  0  0  0  0  0  0  0  0  0  0
  -86.4914   33.3052   -1.5390 C   0  0  0  0  0  0  0  0  0  0  0  0
  -86.7259   33.6509   -2.8331 C   0  0  0  0  0  0  0  0  0  0  0  0
  -88.0090   33.5891   -3.4030 C   0  0  0  0  0  0  0  0  0  0  0  0
  -90.6273   32.2305   -3.6714 H   0  0  0  0  0  0  0  0  0  0  0  0
 27 28  1  0  0  0
 28 29  2  0  0  0
 29 30  1  0  0  0
 30 31  2  0  0  0
 31 25  1  0  0  0
 25  1  1  0  0  0
  1  2  2  0  0  0
  2  3  1  0  0  0
  3  4  2  0  0  0
  4  5  1  0  0  0
  5  6  2  0  0  0
  6  7  1  0  0  0
  7 10  1  0  0  0
 10 11  2  0  0  0
 11 12  1  0  0  0
 12 13  2  0  0  0
 13 16  1  0  0  0
 16 17  1  0  0  0
 17 18  1  0  0  0
 18 19  1  0  0  0
 19 20  1  0  0  0
 20 21  1  0  0  0
 21 22  1  0  0  0
 22 23  1  0  0  0
 23 24  1  0  0  0
 13 14  1  0  0  0
 14 15  2  0  0  0
  7  8  1  0  0  0
  8  9  2  0  0  0
 31 32  1  0  0  0
 32 33  2  0  0  0
 33 28  1  0  0  0
  9  1  1  0  0  0
  8  4  1  0  0  0
 15 10  1  0  0  0
 24 19  1  0  0  0
 27 34  1  0  0  0
 25 26  1  0  0  0
M  END
> <minimizedAffinity>
-8.66626

> <CNNscore>
0.5349786878

> <CNNaffinity>
6.9580125809

> <CNN_VS>
3.7223885059

> <CNNaffinity_variance>
0.1163698882

$$$$
[H]Oc1c([H])c([H])c(N([H])c2nc([H])c3nnn(-c4c([H])c([H])c(OC([H])([H])C([H])([H])N5C([H])([H])C([H])([H])OC([H])([H])C5([H])[H])c([H])c4[H])c3n2)c([H])c1[H]


 34 38  0  0  0  0  0  0  0  0999 V2000
  -86.4273   28.3557    1.3469 C   0  0  0  0  0  0  0  0  0  0  0  0
  -85.3396   28.0944    2.1152 N   0  0  0  0  0  0  0  0  0  0  0  0
  -84.3106   28.9232    2.2827 C   0  0  0  0  0  0  0  0  0  0  0  0
  -84.3298   30.1411    1.6379 C   0  0  0  0  0  0  0  0  0  0  0  0
  -83.5202   31.2030    1.5550 N   0  0  0  0  0  0  0  0  0  0  0  0
  -84.0822   32.0993    0.7607 N   0  0  0  0  0  0  0  0  0  0  0  0
  -85.2569   31.6345    0.3207 N   0  0  0  0  0  0  0  0  0  0  0  0
  -85.4415   30.4129    0.8503 C   0  0  0  0  0  0  0  0  0  0  0  0
  -86.4472   29.5327    0.7231 N   0  0  0  0  0  0  0  0  0  0  0  0
  -86.1459   32.3185   -0.5526 C   0  0  0  0  0  0  0  0  0  0  0  0
  -85.7454   33.2875   -1.4439 C   0  0  0  0  0  0  0  0  0  0  0  0
  -86.6848   33.8942   -2.2517 C   0  0  0  0  0  0  0  0  0  0  0  0
  -88.0289   33.5876   -2.2250 C   0  0  0  0  0  0  0  0  0  0  0  0
  -88.4249   32.6051   -1.3192 C   0  0  0  0  0  0  0  0  0  0  0  0
  -87.4877   31.9994   -0.5133 C   0  0  0  0  0  0  0  0  0  0  0  0
  -88.9585   34.2051   -3.0419 O   0  0  0  0  0  0  0  0  0  0  0  0
  -88.6548   34.4407   -4.3846 C   0  0  0  0  0  0  0  0  0  0  0  0
  -89.7020   33.9349   -5.3327 C   0  0  0  0  0  0  0  0  0  0  0  0
  -90.8997   33.5023   -4.7241 N   0  0  0  0  0  0  0  0  0  0  0  0
  -92.0413   34.3271   -4.8803 C   0  0  0  0  0  0  0  0  0  0  0  0
  -92.6735   33.9755   -6.2320 C   0  0  0  0  0  0  0  0  0  0  0  0
  -92.6206   32.6174   -6.4648 O   0  0  0  0  0  0  0  0  0  0  0  0
  -92.5235   31.8666   -5.2998 C   0  0  0  0  0  0  0  0  0  0  0  0
  -91.1329   32.1014   -4.6973 C   0  0  0  0  0  0  0  0  0  0  0  0
  -87.4429   27.3918    1.2737 N   0  0  0  0  0  0  0  0  0  0  0  0
  -87.4634   26.8009    0.3605 H   0  0  0  0  0  0  0  0  0  0  0  0
  -91.5428   26.1981    4.9068 O   0  0  0  0  0  0  0  0  0  0  0  0
  -90.5232   26.4963    3.9964 C   0  0  0  0  0  0  0  0  0  0  0  0
  -90.5880   27.6029    3.1737 C   0  0  0  0  0  0  0  0  0  0  0  0
  -89.5693   27.8750    2.2846 C   0  0  0  0  0  0  0  0  0  0  0  0
  -88.4435   27.0600    2.1748 C   0  0  0  0  0  0  0  0  0  0  0  0
  -88.3941   25.9740    2.9917 C   0  0  0  0  0  0  0  0  0  0  0  0
  -89.4205   25.6778    3.9048 C   0  0  0  0  0  0  0  0  0  0  0  0
  -91.4612   26.5931    5.8467 H   0  0  0  0  0  0  0  0  0  0  0  0
 27 28  1  0  0  0
 28 29  2  0  0  0
 29 30  1  0  0  0
 30 31  2  0  0  0
 31 25  1  0  0  0
 25  1  1  0  0  0
  1  2  2  0  0  0
  2  3  1  0  0  0
  3  4  2  0  0  0
  4  5  1  0  0  0
  5  6  2  0  0  0
  6  7  1  0  0  0
  7 10  1  0  0  0
 10 11  2  0  0  0
 11 12  1  0  0  0
 12 13  2  0  0  0
 13 16  1  0  0  0
 16 17  1  0  0  0
 17 18  1  0  0  0
 18 19  1  0  0  0
 19 20  1  0  0  0
 20 21  1  0  0  0
 21 22  1  0  0  0
 22 23  1  0  0  0
 23 24  1  0  0  0
 13 14  1  0  0  0
 14 15  2  0  0  0
  7  8  1  0  0  0
  8  9  2  0  0  0
 31 32  1  0  0  0
 32 33  2  0  0  0
 33 28  1  0  0  0
  9  1  1  0  0  0
  8  4  1  0  0  0
 15 10  1  0  0  0
 24 19  1  0  0  0
 27 34  1  0  0  0
 25 26  1  0  0  0
M  END
> <minimizedAffinity>
-8.22674

> <CNNscore>
0.5201541185

> <CNNaffinity>
6.7970876694

> <CNN_VS>
3.5355331898

> <CNNaffinity_variance>
0.0111857895

$$$$
[H]Oc1c([H])c([H])c(N([H])c2nc([H])c3nnn(-c4c([H])c([H])c(OC([H])([H])C([H])([H])N5C([H])([H])C([H])([H])OC([H])([H])C5([H])[H])c([H])c4[H])c3n2)c([H])c1[H]


 34 38  0  0  0  0  0  0  0  0999 V2000
  -85.4987   32.2021    0.0443 C   0  0  0  0  0  0  0  0  0  0  0  0
  -84.9793   33.2019   -0.7122 N   0  0  0  0  0  0  0  0  0  0  0  0
  -85.4967   33.6330   -1.8612 C   0  0  0  0  0  0  0  0  0  0  0  0
  -86.6437   33.0345   -2.3364 C   0  0  0  0  0  0  0  0  0  0  0  0
  -87.4351   33.1762   -3.4059 N   0  0  0  0  0  0  0  0  0  0  0  0
  -88.4173   32.2940   -3.3218 N   0  0  0  0  0  0  0  0  0  0  0  0
  -88.2779   31.5729   -2.2037 N   0  0  0  0  0  0  0  0  0  0  0  0
  -87.1791   32.0106   -1.5652 C   0  0  0  0  0  0  0  0  0  0  0  0
  -86.6074   31.6229   -0.4140 N   0  0  0  0  0  0  0  0  0  0  0  0
  -89.1436   30.5300   -1.7750 C   0  0  0  0  0  0  0  0  0  0  0  0
  -89.8842   30.5807   -0.6164 C   0  0  0  0  0  0  0  0  0  0  0  0
  -90.6980   29.5168   -0.2860 C   0  0  0  0  0  0  0  0  0  0  0  0
  -90.8215   28.3801   -1.0567 C   0  0  0  0  0  0  0  0  0  0  0  0
  -90.0674   28.3380   -2.2282 C   0  0  0  0  0  0  0  0  0  0  0  0
  -89.2557   29.3996   -2.5581 C   0  0  0  0  0  0  0  0  0  0  0  0
  -91.6421   27.3218   -0.7116 O   0  0  0  0  0  0  0  0  0  0  0  0
  -91.2981   26.4982    0.3627 C   0  0  0  0  0  0  0  0  0  0  0  0
  -90.1251   25.6059    0.0810 C   0  0  0  0  0  0  0  0  0  0  0  0
  -89.0807   25.6758    1.0278 N   0  0  0  0  0  0  0  0  0  0  0  0
  -87.7651   25.8493    0.5307 C   0  0  0  0  0  0  0  0  0  0  0  0
  -87.5650   27.3502    0.2906 C   0  0  0  0  0  0  0  0  0  0  0  0
  -88.1551   28.0944    1.2905 O   0  0  0  0  0  0  0  0  0  0  0  0
  -88.3067   27.3904    2.4787 C   0  0  0  0  0  0  0  0  0  0  0  0
  -89.3782   26.3150    2.2609 C   0  0  0  0  0  0  0  0  0  0  0  0
  -84.8519   31.8623    1.2408 N   0  0  0  0  0  0  0  0  0  0  0  0
  -84.6484   32.6912    1.9155 H   0  0  0  0  0  0  0  0  0  0  0  0
  -82.9606   26.9135    3.0757 O   0  0  0  0  0  0  0  0  0  0  0  0
  -83.4287   28.1508    2.6204 C   0  0  0  0  0  0  0  0  0  0  0  0
  -82.5973   29.0489    1.9818 C   0  0  0  0  0  0  0  0  0  0  0  0
  -83.0835   30.2625    1.5421 C   0  0  0  0  0  0  0  0  0  0  0  0
  -84.4153   30.6354    1.7179 C   0  0  0  0  0  0  0  0  0  0  0  0
  -85.2218   29.7403    2.3484 C   0  0  0  0  0  0  0  0  0  0  0  0
  -84.7477   28.4984    2.8045 C   0  0  0  0  0  0  0  0  0  0  0  0
  -83.0168   26.1245    2.4274 H   0  0  0  0  0  0  0  0  0  0  0  0
 27 28  1  0  0  0
 28 29  2  0  0  0
 29 30  1  0  0  0
 30 31  2  0  0  0
 31 25  1  0  0  0
 25  1  1  0  0  0
  1  2  2  0  0  0
  2  3  1  0  0  0
  3  4  2  0  0  0
  4  5  1  0  0  0
  5  6  2  0  0  0
  6  7  1  0  0  0
  7 10  1  0  0  0
 10 11  2  0  0  0
 11 12  1  0  0  0
 12 13  2  0  0  0
 13 16  1  0  0  0
 16 17  1  0  0  0
 17 18  1  0  0  0
 18 19  1  0  0  0
 19 20  1  0  0  0
 20 21  1  0  0  0
 21 22  1  0  0  0
 22 23  1  0  0  0
 23 24  1  0  0  0
 13 14  1  0  0  0
 14 15  2  0  0  0
  7  8  1  0  0  0
  8  9  2  0  0  0
 31 32  1  0  0  0
 32 33  2  0  0  0
 33 28  1  0  0  0
  9  1  1  0  0  0
  8  4  1  0  0  0
 15 10  1  0  0  0
 24 19  1  0  0  0
 27 34  1  0  0  0
 25 26  1  0  0  0
M  END
> <minimizedAffinity>
-9.22918

> <CNNscore>
0.4609512985

> <CNNaffinity>
6.9277334213

> <CNN_VS>
3.1933476925

> <CNNaffinity_variance>
0.2318522483

$$$$
[H]Oc1c([H])c([H])c(N([H])c2nc([H])c3nnn(-c4c([H])c([H])c(OC([H])([H])C([H])([H])N5C([H])([H])C([H])([H])OC([H])([H])C5([H])[H])c([H])c4[H])c3n2)c([H])c1[H]


 34 38  0  0  0  0  0  0  0  0999 V2000
  -85.8475   27.4722    1.7410 C   0  0  0  0  0  0  0  0  0  0  0  0
  -84.7477   27.0381    2.4071 N   0  0  0  0  0  0  0  0  0  0  0  0
  -83.6153   27.7274    2.5351 C   0  0  0  0  0  0  0  0  0  0  0  0
  -83.5312   28.9755    1.9566 C   0  0  0  0  0  0  0  0  0  0  0  0
  -82.6053   29.9370    1.8645 N   0  0  0  0  0  0  0  0  0  0  0  0
  -83.1087   30.9396    1.1636 N   0  0  0  0  0  0  0  0  0  0  0  0
  -84.3601   30.6447    0.7942 N   0  0  0  0  0  0  0  0  0  0  0  0
  -84.6548   29.4241    1.2738 C   0  0  0  0  0  0  0  0  0  0  0  0
  -85.7675   28.6786    1.1815 N   0  0  0  0  0  0  0  0  0  0  0  0
  -85.2189   31.4805    0.0295 C   0  0  0  0  0  0  0  0  0  0  0  0
  -84.8116   32.6525   -0.5658 C   0  0  0  0  0  0  0  0  0  0  0  0
  -85.7208   33.3954   -1.2902 C   0  0  0  0  0  0  0  0  0  0  0  0
  -87.0404   33.0338   -1.4613 C   0  0  0  0  0  0  0  0  0  0  0  0
  -87.4434   31.8455   -0.8547 C   0  0  0  0  0  0  0  0  0  0  0  0
  -86.5364   31.1040   -0.1322 C   0  0  0  0  0  0  0  0  0  0  0  0
  -87.9397   33.7899   -2.1910 O   0  0  0  0  0  0  0  0  0  0  0  0
  -87.5499   35.0294   -2.7030 C   0  0  0  0  0  0  0  0  0  0  0  0
  -87.4598   35.0568   -4.2005 C   0  0  0  0  0  0  0  0  0  0  0  0
  -88.5217   35.7215   -4.8505 N   0  0  0  0  0  0  0  0  0  0  0  0
  -89.1462   35.0468   -5.9288 C   0  0  0  0  0  0  0  0  0  0  0  0
  -90.1897   34.0983   -5.3273 C   0  0  0  0  0  0  0  0  0  0  0  0
  -90.8354   34.6857   -4.2598 O   0  0  0  0  0  0  0  0  0  0  0  0
  -90.8056   36.0742   -4.2999 C   0  0  0  0  0  0  0  0  0  0  0  0
  -89.3639   36.5268   -4.0381 C   0  0  0  0  0  0  0  0  0  0  0  0
  -86.9763   26.6418    1.6989 N   0  0  0  0  0  0  0  0  0  0  0  0
  -86.9819   25.8981    0.9049 H   0  0  0  0  0  0  0  0  0  0  0  0
  -91.5473   26.3449    4.9319 O   0  0  0  0  0  0  0  0  0  0  0  0
  -90.4039   26.4168    4.1289 C   0  0  0  0  0  0  0  0  0  0  0  0
  -89.6215   25.3066    3.8823 C   0  0  0  0  0  0  0  0  0  0  0  0
  -88.4989   25.4038    3.0868 C   0  0  0  0  0  0  0  0  0  0  0  0
  -88.1059   26.6071    2.5027 C   0  0  0  0  0  0  0  0  0  0  0  0
  -88.8867   27.6917    2.7547 C   0  0  0  0  0  0  0  0  0  0  0  0
  -90.0345   27.6154    3.5621 C   0  0  0  0  0  0  0  0  0  0  0  0
  -92.4329   26.1316    4.4670 H   0  0  0  0  0  0  0  0  0  0  0  0
 27 28  1  0  0  0
 28 29  2  0  0  0
 29 30  1  0  0  0
 30 31  2  0  0  0
 31 25  1  0  0  0
 25  1  1  0  0  0
  1  2  2  0  0  0
  2  3  1  0  0  0
  3  4  2  0  0  0
  4  5  1  0  0  0
  5  6  2  0  0  0
  6  7  1  0  0  0
  7 10  1  0  0  0
 10 11  2  0  0  0
 11 12  1  0  0  0
 12 13  2  0  0  0
 13 16  1  0  0  0
 16 17  1  0  0  0
 17 18  1  0  0  0
 18 19  1  0  0  0
 19 20  1  0  0  0
 20 21  1  0  0  0
 21 22  1  0  0  0
 22 23  1  0  0  0
 23 24  1  0  0  0
 13 14  1  0  0  0
 14 15  2  0  0  0
  7  8  1  0  0  0
  8  9  2  0  0  0
 31 32  1  0  0  0
 32 33  2  0  0  0
 33 28  1  0  0  0
  9  1  1  0  0  0
  8  4  1  0  0  0
 15 10  1  0  0  0
 24 19  1  0  0  0
 27 34  1  0  0  0
 25 26  1  0  0  0
M  END
> <minimizedAffinity>
-8.73971

> <CNNscore>
0.4508089423

> <CNNaffinity>
6.6987671852

> <CNN_VS>
3.0198640823

> <CNNaffinity_variance>
0.2712470591

$$$$
[H]c1nc(N([H])c2c([H])c(C([H])([H])[H])c(C(=O)N([H])C([H])([H])[H])c([H])c2F)nc(-c2c([H])nn3c([H])c([H])c(C(=O)N([H])[H])c([H])c23)c1[H]


 35 38  0  0  0  0  0  0  0  0999 V2000
  -84.8695   32.9208   -0.3184 C   0  0  0  0  0  0  0  0  0  0  0  0
  -83.5827   33.1914   -0.5181 N   0  0  0  0  0  0  0  0  0  0  0  0
  -82.5699   32.3677   -0.2070 C   0  0  0  0  0  0  0  0  0  0  0  0
  -82.8803   31.1541    0.3607 C   0  0  0  0  0  0  0  0  0  0  0  0
  -84.2264   30.8115    0.5961 C   0  0  0  0  0  0  0  0  0  0  0  0
  -85.1272   31.7168    0.2410 N   0  0  0  0  0  0  0  0  0  0  0  0
  -84.5479   29.5462    1.2270 C   0  0  0  0  0  0  0  0  0  0  0  0
  -83.9011   28.9807    2.3315 C   0  0  0  0  0  0  0  0  0  0  0  0
  -84.5118   27.8229    2.6235 N   0  0  0  0  0  0  0  0  0  0  0  0
  -85.5076   27.6107    1.7794 N   0  0  0  0  0  0  0  0  0  0  0  0
  -86.3768   26.5888    1.7192 C   0  0  0  0  0  0  0  0  0  0  0  0
  -87.3412   26.6184    0.7326 C   0  0  0  0  0  0  0  0  0  0  0  0
  -87.4243   27.6605   -0.1734 C   0  0  0  0  0  0  0  0  0  0  0  0
  -86.5158   28.6995   -0.0881 C   0  0  0  0  0  0  0  0  0  0  0  0
  -85.5479   28.6674    0.9036 C   0  0  0  0  0  0  0  0  0  0  0  0
  -88.4733   27.6468   -1.1952 C   0  0  0  0  0  0  0  0  0  0  0  0
  -88.2269   27.8262   -2.5791 N   0  0  0  0  0  0  0  0  0  0  0  0
  -89.6708   27.4654   -0.8401 O   0  0  0  0  0  0  0  0  0  0  0  0
  -87.5972   28.6054   -2.8621 H   0  0  0  0  0  0  0  0  0  0  0  0
  -88.6277   27.2347   -3.3341 H   0  0  0  0  0  0  0  0  0  0  0  0
  -85.9206   33.8108   -0.6360 N   0  0  0  0  0  0  0  0  0  0  0  0
  -85.8970   34.7150   -0.0264 H   0  0  0  0  0  0  0  0  0  0  0  0
  -89.1110   33.3482   -3.3883 C   0  0  0  0  0  0  0  0  0  0  0  0
  -89.1034   32.7576   -2.1053 C   0  0  0  0  0  0  0  0  0  0  0  0
  -88.0624   32.9148   -1.2484 C   0  0  0  0  0  0  0  0  0  0  0  0
  -88.0884   32.3368   -0.0235 F   0  0  0  0  0  0  0  0  0  0  0  0
  -86.9311   33.6734   -1.5897 C   0  0  0  0  0  0  0  0  0  0  0  0
  -86.9333   34.2417   -2.8144 C   0  0  0  0  0  0  0  0  0  0  0  0
  -88.0254   34.0863   -3.7254 C   0  0  0  0  0  0  0  0  0  0  0  0
  -87.9463   34.8502   -5.0006 C   0  0  0  0  0  0  0  0  0  0  0  0
  -92.3918   33.2505   -5.4348 C   0  0  0  0  0  0  0  0  0  0  0  0
  -91.4022   33.7624   -4.4825 N   0  0  0  0  0  0  0  0  0  0  0  0
  -90.2138   33.0485   -4.2697 C   0  0  0  0  0  0  0  0  0  0  0  0
  -90.0737   31.9613   -4.9694 O   0  0  0  0  0  0  0  0  0  0  0  0
  -91.6619   34.6680   -4.0490 H   0  0  0  0  0  0  0  0  0  0  0  0
 31 32  1  0  0  0
 32 33  1  0  0  0
 33 34  2  0  0  0
 33 23  1  0  0  0
 23 24  2  0  0  0
 24 25  1  0  0  0
 25 26  1  0  0  0
 25 27  2  0  0  0
 27 21  1  0  0  0
 21  1  1  0  0  0
  1  2  2  0  0  0
  2  3  1  0  0  0
  3  4  2  0  0  0
  4  5  1  0  0  0
  5  6  2  0  0  0
  5  7  1  0  0  0
  7  8  1  0  0  0
  8  9  2  0  0  0
  9 10  1  0  0  0
 10 11  1  0  0  0
 11 12  2  0  0  0
 12 13  1  0  0  0
 13 14  2  0  0  0
 14 15  1  0  0  0
 13 16  1  0  0  0
 16 17  1  0  0  0
 16 18  2  0  0  0
 27 28  1  0  0  0
 28 29  2  0  0  0
 29 30  1  0  0  0
 29 23  1  0  0  0
  6  1  1  0  0  0
 15  7  2  0  0  0
 15 10  1  0  0  0
 32 35  1  0  0  0
 21 22  1  0  0  0
 17 19  1  0  0  0
 17 20  1  0  0  0
M  END
> <minimizedAffinity>
-9.64339

> <CNNscore>
0.9577842951

> <CNNaffinity>
7.6663351059

> <CNN_VS>
7.3426952362

> <CNNaffinity_variance>
0.0336364210

$$$$
[H]c1nc(N([H])c2c([H])c(C([H])([H])[H])c(C(=O)N([H])C([H])([H])[H])c([H])c2F)nc(-c2c([H])nn3c([H])c([H])c(C(=O)N([H])[H])c([H])c23)c1[H]


 35 38  0  0  0  0  0  0  0  0999 V2000
  -84.9827   32.8926   -0.5378 C   0  0  0  0  0  0  0  0  0  0  0  0
  -83.7274   33.3295   -0.5837 N   0  0  0  0  0  0  0  0  0  0  0  0
  -82.6676   32.6665   -0.0956 C   0  0  0  0  0  0  0  0  0  0  0  0
  -82.8911   31.4456    0.4970 C   0  0  0  0  0  0  0  0  0  0  0  0
  -84.2002   30.9307    0.5749 C   0  0  0  0  0  0  0  0  0  0  0  0
  -85.1546   31.6882    0.0530 N   0  0  0  0  0  0  0  0  0  0  0  0
  -84.4365   29.6599    1.2317 C   0  0  0  0  0  0  0  0  0  0  0  0
  -83.7225   29.1405    2.3173 C   0  0  0  0  0  0  0  0  0  0  0  0
  -84.2652   27.9587    2.6451 N   0  0  0  0  0  0  0  0  0  0  0  0
  -85.2802   27.6880    1.8416 N   0  0  0  0  0  0  0  0  0  0  0  0
  -86.1006   26.6250    1.8257 C   0  0  0  0  0  0  0  0  0  0  0  0
  -87.1013   26.5954    0.8759 C   0  0  0  0  0  0  0  0  0  0  0  0
  -87.2683   27.6204   -0.0380 C   0  0  0  0  0  0  0  0  0  0  0  0
  -86.4086   28.7027    0.0013 C   0  0  0  0  0  0  0  0  0  0  0  0
  -85.4041   28.7300    0.9561 C   0  0  0  0  0  0  0  0  0  0  0  0
  -88.3526   27.5430   -1.0192 C   0  0  0  0  0  0  0  0  0  0  0  0
  -88.1843   27.8080   -2.4011 N   0  0  0  0  0  0  0  0  0  0  0  0
  -89.5094   27.2229   -0.6288 O   0  0  0  0  0  0  0  0  0  0  0  0
  -87.6498   28.6600   -2.6696 H   0  0  0  0  0  0  0  0  0  0  0  0
  -88.5543   27.2120   -3.1683 H   0  0  0  0  0  0  0  0  0  0  0  0
  -86.0880   33.6157   -1.0412 N   0  0  0  0  0  0  0  0  0  0  0  0
  -85.9757   34.6921   -0.9060 H   0  0  0  0  0  0  0  0  0  0  0  0
  -89.5165   32.1956   -3.0896 C   0  0  0  0  0  0  0  0  0  0  0  0
  -88.5708   33.0668   -3.6742 C   0  0  0  0  0  0  0  0  0  0  0  0
  -87.4869   33.5137   -2.9899 C   0  0  0  0  0  0  0  0  0  0  0  0
  -86.5973   34.3465   -3.5815 F   0  0  0  0  0  0  0  0  0  0  0  0
  -87.2445   33.1362   -1.6593 C   0  0  0  0  0  0  0  0  0  0  0  0
  -88.1444   32.3023   -1.0957 C   0  0  0  0  0  0  0  0  0  0  0  0
  -89.2889   31.8217   -1.8069 C   0  0  0  0  0  0  0  0  0  0  0  0
  -90.1442   30.8270   -1.1035 C   0  0  0  0  0  0  0  0  0  0  0  0
  -92.9848   31.9489   -4.7841 C   0  0  0  0  0  0  0  0  0  0  0  0
  -91.9287   32.5003   -3.9304 N   0  0  0  0  0  0  0  0  0  0  0  0
  -90.6887   31.8489   -3.8568 C   0  0  0  0  0  0  0  0  0  0  0  0
  -90.5663   30.7809   -4.5885 O   0  0  0  0  0  0  0  0  0  0  0  0
  -92.1886   33.3842   -3.4545 H   0  0  0  0  0  0  0  0  0  0  0  0
 31 32  1  0  0  0
 32 33  1  0  0  0
 33 34  2  0  0  0
 33 23  1  0  0  0
 23 24  2  0  0  0
 24 25  1  0  0  0
 25 26  1  0  0  0
 25 27  2  0  0  0
 27 21  1  0  0  0
 21  1  1  0  0  0
  1  2  2  0  0  0
  2  3  1  0  0  0
  3  4  2  0  0  0
  4  5  1  0  0  0
  5  6  2  0  0  0
  5  7  1  0  0  0
  7  8  1  0  0  0
  8  9  2  0  0  0
  9 10  1  0  0  0
 10 11  1  0  0  0
 11 12  2  0  0  0
 12 13  1  0  0  0
 13 14  2  0  0  0
 14 15  1  0  0  0
 13 16  1  0  0  0
 16 17  1  0  0  0
 16 18  2  0  0  0
 27 28  1  0  0  0
 28 29  2  0  0  0
 29 30  1  0  0  0
 29 23  1  0  0  0
  6  1  1  0  0  0
 15  7  2  0  0  0
 15 10  1  0  0  0
 32 35  1  0  0  0
 21 22  1  0  0  0
 17 19  1  0  0  0
 17 20  1  0  0  0
M  END
> <minimizedAffinity>
-9.56989

> <CNNscore>
0.9518847466

> <CNNaffinity>
7.6979207993

> <CNN_VS>
7.3275332451

> <CNNaffinity_variance>
0.0337226093

$$$$
[H]c1nc(N([H])c2c([H])c(C([H])([H])[H])c(C(=O)N([H])C([H])([H])[H])c([H])c2F)nc(-c2c([H])nn3c([H])c([H])c(C(=O)N([H])[H])c([H])c23)c1[H]


 35 38  0  0  0  0  0  0  0  0999 V2000
  -85.1090   33.3191   -0.9747 C   0  0  0  0  0  0  0  0  0  0  0  0
  -83.7902   33.4677   -1.0612 N   0  0  0  0  0  0  0  0  0  0  0  0
  -82.8899   32.6986   -0.4294 C   0  0  0  0  0  0  0  0  0  0  0  0
  -83.3609   31.6815    0.3677 C   0  0  0  0  0  0  0  0  0  0  0  0
  -84.7485   31.4751    0.4980 C   0  0  0  0  0  0  0  0  0  0  0  0
  -85.5260   32.3067   -0.1809 N   0  0  0  0  0  0  0  0  0  0  0  0
  -85.2419   30.4244    1.3668 C   0  0  0  0  0  0  0  0  0  0  0  0
  -85.0514   30.3324    2.7500 C   0  0  0  0  0  0  0  0  0  0  0  0
  -85.6844   29.2330    3.1850 N   0  0  0  0  0  0  0  0  0  0  0  0
  -86.2685   28.6159    2.1715 N   0  0  0  0  0  0  0  0  0  0  0  0
  -87.0089   27.4956    2.1622 C   0  0  0  0  0  0  0  0  0  0  0  0
  -87.5180   27.0678    0.9530 C   0  0  0  0  0  0  0  0  0  0  0  0
  -87.2831   27.7596   -0.2217 C   0  0  0  0  0  0  0  0  0  0  0  0
  -86.5168   28.9101   -0.1825 C   0  0  0  0  0  0  0  0  0  0  0  0
  -86.0064   29.3376    1.0333 C   0  0  0  0  0  0  0  0  0  0  0  0
  -87.8549   27.2667   -1.4764 C   0  0  0  0  0  0  0  0  0  0  0  0
  -88.2327   25.9183   -1.6935 N   0  0  0  0  0  0  0  0  0  0  0  0
  -88.0285   28.0761   -2.4293 O   0  0  0  0  0  0  0  0  0  0  0  0
  -87.5650   25.1749   -1.4013 H   0  0  0  0  0  0  0  0  0  0  0  0
  -89.1303   25.6157   -2.1219 H   0  0  0  0  0  0  0  0  0  0  0  0
  -86.0410   34.1526   -1.6339 N   0  0  0  0  0  0  0  0  0  0  0  0
  -85.8920   35.2075   -1.4001 H   0  0  0  0  0  0  0  0  0  0  0  0
  -89.1945   33.2683   -4.3248 C   0  0  0  0  0  0  0  0  0  0  0  0
  -88.9799   34.5532   -3.7788 C   0  0  0  0  0  0  0  0  0  0  0  0
  -87.9670   34.8046   -2.9107 C   0  0  0  0  0  0  0  0  0  0  0  0
  -87.7874   36.0495   -2.4077 F   0  0  0  0  0  0  0  0  0  0  0  0
  -87.0745   33.7998   -2.5039 C   0  0  0  0  0  0  0  0  0  0  0  0
  -87.2738   32.5698   -3.0237 C   0  0  0  0  0  0  0  0  0  0  0  0
  -88.3354   32.2926   -3.9419 C   0  0  0  0  0  0  0  0  0  0  0  0
  -88.3793   30.9210   -4.5188 C   0  0  0  0  0  0  0  0  0  0  0  0
  -92.5892   32.3067   -5.9099 C   0  0  0  0  0  0  0  0  0  0  0  0
  -91.5442   32.3830   -4.8851 N   0  0  0  0  0  0  0  0  0  0  0  0
  -90.3526   33.0689   -5.1626 C   0  0  0  0  0  0  0  0  0  0  0  0
  -90.2745   33.6137   -6.3408 O   0  0  0  0  0  0  0  0  0  0  0  0
  -91.7981   31.9290   -3.9881 H   0  0  0  0  0  0  0  0  0  0  0  0
 31 32  1  0  0  0
 32 33  1  0  0  0
 33 34  2  0  0  0
 33 23  1  0  0  0
 23 24  2  0  0  0
 24 25  1  0  0  0
 25 26  1  0  0  0
 25 27  2  0  0  0
 27 21  1  0  0  0
 21  1  1  0  0  0
  1  2  2  0  0  0
  2  3  1  0  0  0
  3  4  2  0  0  0
  4  5  1  0  0  0
  5  6  2  0  0  0
  5  7  1  0  0  0
  7  8  1  0  0  0
  8  9  2  0  0  0
  9 10  1  0  0  0
 10 11  1  0  0  0
 11 12  2  0  0  0
 12 13  1  0  0  0
 13 14  2  0  0  0
 14 15  1  0  0  0
 13 16  1  0  0  0
 16 17  1  0  0  0
 16 18  2  0  0  0
 27 28  1  0  0  0
 28 29  2  0  0  0
 29 30  1  0  0  0
 29 23  1  0  0  0
  6  1  1  0  0  0
 15  7  2  0  0  0
 15 10  1  0  0  0
 32 35  1  0  0  0
 21 22  1  0  0  0
 17 19  1  0  0  0
 17 20  1  0  0  0
M  END
> <minimizedAffinity>
-8.98659

> <CNNscore>
0.8776503801

> <CNNaffinity>
7.4488439560

> <CNN_VS>
6.5374808311

> <CNNaffinity_variance>
0.0578668304

$$$$
[H]c1nc(N([H])c2c([H])c(C([H])([H])[H])c(C(=O)N([H])C([H])([H])[H])c([H])c2F)nc(-c2c([H])nn3c([H])c([H])c(C(=O)N([H])[H])c([H])c23)c1[H]


 35 38  0  0  0  0  0  0  0  0999 V2000
  -89.0592   30.9598   -1.2401 C   0  0  0  0  0  0  0  0  0  0  0  0
  -89.7331   32.0193   -1.6785 N   0  0  0  0  0  0  0  0  0  0  0  0
  -89.1989   33.2317   -1.8926 C   0  0  0  0  0  0  0  0  0  0  0  0
  -87.8567   33.3955   -1.6410 C   0  0  0  0  0  0  0  0  0  0  0  0
  -87.0906   32.3088   -1.1752 C   0  0  0  0  0  0  0  0  0  0  0  0
  -87.7433   31.1674   -1.0070 N   0  0  0  0  0  0  0  0  0  0  0  0
  -85.6838   32.4943   -0.8774 C   0  0  0  0  0  0  0  0  0  0  0  0
  -84.8397   33.4662   -1.4261 C   0  0  0  0  0  0  0  0  0  0  0  0
  -83.6255   33.3217   -0.8753 N   0  0  0  0  0  0  0  0  0  0  0  0
  -83.6370   32.3220   -0.0094 N   0  0  0  0  0  0  0  0  0  0  0  0
  -82.6477   31.8475    0.7647 C   0  0  0  0  0  0  0  0  0  0  0  0
  -82.9335   30.7875    1.6008 C   0  0  0  0  0  0  0  0  0  0  0  0
  -84.1942   30.2203    1.6526 C   0  0  0  0  0  0  0  0  0  0  0  0
  -85.1939   30.7292    0.8441 C   0  0  0  0  0  0  0  0  0  0  0  0
  -84.9043   31.7937    0.0049 C   0  0  0  0  0  0  0  0  0  0  0  0
  -84.4460   29.1027    2.5648 C   0  0  0  0  0  0  0  0  0  0  0  0
  -83.6494   27.9318    2.6142 N   0  0  0  0  0  0  0  0  0  0  0  0
  -85.4243   29.1702    3.3595 O   0  0  0  0  0  0  0  0  0  0  0  0
  -83.3960   27.4797    1.7114 H   0  0  0  0  0  0  0  0  0  0  0  0
  -83.2968   27.4912    3.4872 H   0  0  0  0  0  0  0  0  0  0  0  0
  -89.6453   29.6957   -1.0029 N   0  0  0  0  0  0  0  0  0  0  0  0
  -90.3324   29.4014   -1.7972 H   0  0  0  0  0  0  0  0  0  0  0  0
  -89.2602   27.0267    2.2676 C   0  0  0  0  0  0  0  0  0  0  0  0
  -90.4652   27.6907    1.9477 C   0  0  0  0  0  0  0  0  0  0  0  0
  -90.5561   28.5485    0.8996 C   0  0  0  0  0  0  0  0  0  0  0  0
  -91.7282   29.1668    0.6185 F   0  0  0  0  0  0  0  0  0  0  0  0
  -89.4554   28.8266    0.0732 C   0  0  0  0  0  0  0  0  0  0  0  0
  -88.3011   28.1936    0.3733 C   0  0  0  0  0  0  0  0  0  0  0  0
  -88.1931   27.2850    1.4730 C   0  0  0  0  0  0  0  0  0  0  0  0
  -86.8933   26.5765    1.6297 C   0  0  0  0  0  0  0  0  0  0  0  0
  -88.8965   24.2421    4.9274 C   0  0  0  0  0  0  0  0  0  0  0  0
  -88.8346   24.8705    3.6048 N   0  0  0  0  0  0  0  0  0  0  0  0
  -89.2280   26.2086    3.4560 C   0  0  0  0  0  0  0  0  0  0  0  0
  -89.6142   26.8090    4.5430 O   0  0  0  0  0  0  0  0  0  0  0  0
  -88.4581   24.2536    2.8611 H   0  0  0  0  0  0  0  0  0  0  0  0
 31 32  1  0  0  0
 32 33  1  0  0  0
 33 34  2  0  0  0
 33 23  1  0  0  0
 23 24  2  0  0  0
 24 25  1  0  0  0
 25 26  1  0  0  0
 25 27  2  0  0  0
 27 21  1  0  0  0
 21  1  1  0  0  0
  1  2  2  0  0  0
  2  3  1  0  0  0
  3  4  2  0  0  0
  4  5  1  0  0  0
  5  6  2  0  0  0
  5  7  1  0  0  0
  7  8  1  0  0  0
  8  9  2  0  0  0
  9 10  1  0  0  0
 10 11  1  0  0  0
 11 12  2  0  0  0
 12 13  1  0  0  0
 13 14  2  0  0  0
 14 15  1  0  0  0
 13 16  1  0  0  0
 16 17  1  0  0  0
 16 18  2  0  0  0
 27 28  1  0  0  0
 28 29  2  0  0  0
 29 30  1  0  0  0
 29 23  1  0  0  0
  6  1  1  0  0  0
 15  7  2  0  0  0
 15 10  1  0  0  0
 32 35  1  0  0  0
 21 22  1  0  0  0
 17 19  1  0  0  0
 17 20  1  0  0  0
M  END
> <minimizedAffinity>
-9.75939

> <CNNscore>
0.8758764863

> <CNNaffinity>
7.6595292091

> <CNN_VS>
6.7088017464

> <CNNaffinity_variance>
0.1611966491

$$$$
[H]c1nc(N([H])c2c([H])c(C([H])([H])[H])c(C(=O)N([H])C([H])([H])[H])c([H])c2F)nc(-c2c([H])nn3c([H])c([H])c(C(=O)N([H])[H])c([H])c23)c1[H]


 35 38  0  0  0  0  0  0  0  0999 V2000
  -85.2189   27.5808    1.9647 C   0  0  0  0  0  0  0  0  0  0  0  0
  -84.1390   27.1354    2.6005 N   0  0  0  0  0  0  0  0  0  0  0  0
  -82.9738   27.7958    2.6858 C   0  0  0  0  0  0  0  0  0  0  0  0
  -82.8849   29.0232    2.0716 C   0  0  0  0  0  0  0  0  0  0  0  0
  -83.9966   29.5472    1.3829 C   0  0  0  0  0  0  0  0  0  0  0  0
  -85.0855   28.7914    1.3767 N   0  0  0  0  0  0  0  0  0  0  0  0
  -83.8882   30.8253    0.7068 C   0  0  0  0  0  0  0  0  0  0  0  0
  -82.7124   31.5510    0.4860 C   0  0  0  0  0  0  0  0  0  0  0  0
  -83.0309   32.6626   -0.1934 N   0  0  0  0  0  0  0  0  0  0  0  0
  -84.3330   32.6956   -0.4229 N   0  0  0  0  0  0  0  0  0  0  0  0
  -85.0655   33.6145   -1.0729 C   0  0  0  0  0  0  0  0  0  0  0  0
  -86.4240   33.3982   -1.1822 C   0  0  0  0  0  0  0  0  0  0  0  0
  -87.0281   32.2753   -0.6456 C   0  0  0  0  0  0  0  0  0  0  0  0
  -86.2493   31.3457    0.0188 C   0  0  0  0  0  0  0  0  0  0  0  0
  -84.8850   31.5653    0.1276 C   0  0  0  0  0  0  0  0  0  0  0  0
  -88.4727   32.0901   -0.7984 C   0  0  0  0  0  0  0  0  0  0  0  0
  -89.3199   33.0157   -1.4569 N   0  0  0  0  0  0  0  0  0  0  0  0
  -89.0101   31.0519   -0.3226 O   0  0  0  0  0  0  0  0  0  0  0  0
  -89.2093   34.0244   -1.2243 H   0  0  0  0  0  0  0  0  0  0  0  0
  -90.0438   32.7616   -2.1584 H   0  0  0  0  0  0  0  0  0  0  0  0
  -86.4313   26.8604    1.8705 N   0  0  0  0  0  0  0  0  0  0  0  0
  -86.4204   25.9496    2.4704 H   0  0  0  0  0  0  0  0  0  0  0  0
  -89.9893   27.8758   -0.1977 C   0  0  0  0  0  0  0  0  0  0  0  0
  -89.8993   27.8281    1.2111 C   0  0  0  0  0  0  0  0  0  0  0  0
  -88.7484   27.4894    1.8462 C   0  0  0  0  0  0  0  0  0  0  0  0
  -88.6954   27.4561    3.1994 F   0  0  0  0  0  0  0  0  0  0  0  0
  -87.5802   27.1649    1.1378 C   0  0  0  0  0  0  0  0  0  0  0  0
  -87.6598   27.2102   -0.2093 C   0  0  0  0  0  0  0  0  0  0  0  0
  -88.8656   27.5687   -0.8905 C   0  0  0  0  0  0  0  0  0  0  0  0
  -88.7882   27.6808   -2.3728 C   0  0  0  0  0  0  0  0  0  0  0  0
  -93.1690   29.4045   -1.7832 C   0  0  0  0  0  0  0  0  0  0  0  0
  -91.8194   29.3723   -1.2125 N   0  0  0  0  0  0  0  0  0  0  0  0
  -91.2768   28.1501   -0.7892 C   0  0  0  0  0  0  0  0  0  0  0  0
  -92.0342   27.1064   -0.9571 O   0  0  0  0  0  0  0  0  0  0  0  0
  -91.3448   30.2942   -1.1976 H   0  0  0  0  0  0  0  0  0  0  0  0
 31 32  1  0  0  0
 32 33  1  0  0  0
 33 34  2  0  0  0
 33 23  1  0  0  0
 23 24  2  0  0  0
 24 25  1  0  0  0
 25 26  1  0  0  0
 25 27  2  0  0  0
 27 21  1  0  0  0
 21  1  1  0  0  0
  1  2  2  0  0  0
  2  3  1  0  0  0
  3  4  2  0  0  0
  4  5  1  0  0  0
  5  6  2  0  0  0
  5  7  1  0  0  0
  7  8  1  0  0  0
  8  9  2  0  0  0
  9 10  1  0  0  0
 10 11  1  0  0  0
 11 12  2  0  0  0
 12 13  1  0  0  0
 13 14  2  0  0  0
 14 15  1  0  0  0
 13 16  1  0  0  0
 16 17  1  0  0  0
 16 18  2  0  0  0
 27 28  1  0  0  0
 28 29  2  0  0  0
 29 30  1  0  0  0
 29 23  1  0  0  0
  6  1  1  0  0  0
 15  7  2  0  0  0
 15 10  1  0  0  0
 32 35  1  0  0  0
 21 22  1  0  0  0
 17 19  1  0  0  0
 17 20  1  0  0  0
M  END
> <minimizedAffinity>
-10.27385

> <CNNscore>
0.8575624824

> <CNNaffinity>
7.5971283913

> <CNN_VS>
6.5150122643

> <CNNaffinity_variance>
0.1342295110

$$$$
[H]c1nc(N([H])c2c([H])c(C([H])([H])[H])c(C(=O)N([H])C([H])([H])[H])c([H])c2F)nc(-c2c([H])nn3c([H])c([H])c(C(=O)N([H])[H])c([H])c23)c1[H]


 35 38  0  0  0  0  0  0  0  0999 V2000
  -85.2783   27.4941    1.9851 C   0  0  0  0  0  0  0  0  0  0  0  0
  -84.1943   27.0875    2.6397 N   0  0  0  0  0  0  0  0  0  0  0  0
  -83.0453   27.7762    2.7206 C   0  0  0  0  0  0  0  0  0  0  0  0
  -82.9789   28.9918    2.0807 C   0  0  0  0  0  0  0  0  0  0  0  0
  -84.0960   29.4751    1.3712 C   0  0  0  0  0  0  0  0  0  0  0  0
  -85.1672   28.6945    1.3721 N   0  0  0  0  0  0  0  0  0  0  0  0
  -84.0106   30.7405    0.6684 C   0  0  0  0  0  0  0  0  0  0  0  0
  -82.8443   31.4675    0.4054 C   0  0  0  0  0  0  0  0  0  0  0  0
  -83.1850   32.5643   -0.2871 N   0  0  0  0  0  0  0  0  0  0  0  0
  -84.4924   32.5867   -0.4856 N   0  0  0  0  0  0  0  0  0  0  0  0
  -85.2451   33.4893   -1.1351 C   0  0  0  0  0  0  0  0  0  0  0  0
  -86.6047   33.2645   -1.2074 C   0  0  0  0  0  0  0  0  0  0  0  0
  -87.1898   32.1493   -0.6349 C   0  0  0  0  0  0  0  0  0  0  0  0
  -86.3903   31.2363    0.0280 C   0  0  0  0  0  0  0  0  0  0  0  0
  -85.0250   31.4645    0.0996 C   0  0  0  0  0  0  0  0  0  0  0  0
  -88.6367   31.9542   -0.7491 C   0  0  0  0  0  0  0  0  0  0  0  0
  -89.5033   32.8590   -1.4113 N   0  0  0  0  0  0  0  0  0  0  0  0
  -89.1580   30.9264   -0.2344 O   0  0  0  0  0  0  0  0  0  0  0  0
  -89.3921   33.8738   -1.2073 H   0  0  0  0  0  0  0  0  0  0  0  0
  -90.2421   32.5839   -2.0889 H   0  0  0  0  0  0  0  0  0  0  0  0
  -86.4731   26.7442    1.8962 N   0  0  0  0  0  0  0  0  0  0  0  0
  -86.3721   25.7497    2.3326 H   0  0  0  0  0  0  0  0  0  0  0  0
  -90.1732   27.7297    0.0782 C   0  0  0  0  0  0  0  0  0  0  0  0
  -89.1014   27.1326   -0.6216 C   0  0  0  0  0  0  0  0  0  0  0  0
  -87.9233   26.8374   -0.0151 C   0  0  0  0  0  0  0  0  0  0  0  0
  -86.9163   26.2621   -0.7149 F   0  0  0  0  0  0  0  0  0  0  0  0
  -87.7022   27.1108    1.3444 C   0  0  0  0  0  0  0  0  0  0  0  0
  -88.7238   27.6801    2.0189 C   0  0  0  0  0  0  0  0  0  0  0  0
  -89.9711   27.9932    1.3921 C   0  0  0  0  0  0  0  0  0  0  0  0
  -91.0481   28.5220    2.2733 C   0  0  0  0  0  0  0  0  0  0  0  0
  -93.0008   29.4855   -1.8925 C   0  0  0  0  0  0  0  0  0  0  0  0
  -91.7376   29.3532   -1.1611 N   0  0  0  0  0  0  0  0  0  0  0  0
  -91.3526   28.0979   -0.6676 C   0  0  0  0  0  0  0  0  0  0  0  0
  -92.1672   27.1163   -0.9208 O   0  0  0  0  0  0  0  0  0  0  0  0
  -91.1941   30.2337   -1.0936 H   0  0  0  0  0  0  0  0  0  0  0  0
 31 32  1  0  0  0
 32 33  1  0  0  0
 33 34  2  0  0  0
 33 23  1  0  0  0
 23 24  2  0  0  0
 24 25  1  0  0  0
 25 26  1  0  0  0
 25 27  2  0  0  0
 27 21  1  0  0  0
 21  1  1  0  0  0
  1  2  2  0  0  0
  2  3  1  0  0  0
  3  4  2  0  0  0
  4  5  1  0  0  0
  5  6  2  0  0  0
  5  7  1  0  0  0
  7  8  1  0  0  0
  8  9  2  0  0  0
  9 10  1  0  0  0
 10 11  1  0  0  0
 11 12  2  0  0  0
 12 13  1  0  0  0
 13 14  2  0  0  0
 14 15  1  0  0  0
 13 16  1  0  0  0
 16 17  1  0  0  0
 16 18  2  0  0  0
 27 28  1  0  0  0
 28 29  2  0  0  0
 29 30  1  0  0  0
 29 23  1  0  0  0
  6  1  1  0  0  0
 15  7  2  0  0  0
 15 10  1  0  0  0
 32 35  1  0  0  0
 21 22  1  0  0  0
 17 19  1  0  0  0
 17 20  1  0  0  0
M  END
> <minimizedAffinity>
-10.24358

> <CNNscore>
0.8333983421

> <CNNaffinity>
7.4765815735

> <CNN_VS>
6.2309708595

> <CNNaffinity_variance>
0.0824144036

$$$$
[H]c1nc(N([H])c2c([H])c(C([H])([H])[H])c(C(=O)N([H])C([H])([H])[H])c([H])c2F)nc(-c2c([H])nn3c([H])c([H])c(C(=O)N([H])[H])c([H])c23)c1[H]


 35 38  0  0  0  0  0  0  0  0999 V2000
  -85.9522   32.8373   -0.9903 C   0  0  0  0  0  0  0  0  0  0  0  0
  -84.7919   33.4765   -1.1088 N   0  0  0  0  0  0  0  0  0  0  0  0
  -83.6223   33.0375   -0.6184 C   0  0  0  0  0  0  0  0  0  0  0  0
  -83.6184   31.8396    0.0574 C   0  0  0  0  0  0  0  0  0  0  0  0
  -84.8175   31.1168    0.2145 C   0  0  0  0  0  0  0  0  0  0  0  0
  -85.9003   31.6643   -0.3192 N   0  0  0  0  0  0  0  0  0  0  0  0
  -84.8160   29.8720    0.9580 C   0  0  0  0  0  0  0  0  0  0  0  0
  -83.9402   29.5231    1.9919 C   0  0  0  0  0  0  0  0  0  0  0  0
  -84.2836   28.3046    2.4348 N   0  0  0  0  0  0  0  0  0  0  0  0
  -85.3223   27.8512    1.7531 N   0  0  0  0  0  0  0  0  0  0  0  0
  -85.9878   26.6913    1.8762 C   0  0  0  0  0  0  0  0  0  0  0  0
  -87.0588   26.4687    1.0351 C   0  0  0  0  0  0  0  0  0  0  0  0
  -87.4484   27.4006    0.0898 C   0  0  0  0  0  0  0  0  0  0  0  0
  -86.7446   28.5863   -0.0150 C   0  0  0  0  0  0  0  0  0  0  0  0
  -85.6690   28.8075    0.8309 C   0  0  0  0  0  0  0  0  0  0  0  0
  -88.5984   27.1178   -0.7716 C   0  0  0  0  0  0  0  0  0  0  0  0
  -88.5190   27.0167   -2.1828 N   0  0  0  0  0  0  0  0  0  0  0  0
  -89.7324   26.9513   -0.2431 O   0  0  0  0  0  0  0  0  0  0  0  0
  -87.9861   27.7518   -2.6921 H   0  0  0  0  0  0  0  0  0  0  0  0
  -88.9529   26.2599   -2.7482 H   0  0  0  0  0  0  0  0  0  0  0  0
  -87.1772   33.3267   -1.4980 N   0  0  0  0  0  0  0  0  0  0  0  0
  -88.0286   33.0305   -0.8841 H   0  0  0  0  0  0  0  0  0  0  0  0
  -87.9654   35.5343   -5.0297 C   0  0  0  0  0  0  0  0  0  0  0  0
  -87.8893   34.1242   -4.9988 C   0  0  0  0  0  0  0  0  0  0  0  0
  -87.6249   33.4442   -3.8540 C   0  0  0  0  0  0  0  0  0  0  0  0
  -87.5617   32.0911   -3.8586 F   0  0  0  0  0  0  0  0  0  0  0  0
  -87.4100   34.1049   -2.6337 C   0  0  0  0  0  0  0  0  0  0  0  0
  -87.4830   35.4529   -2.6569 C   0  0  0  0  0  0  0  0  0  0  0  0
  -87.7640   36.1810   -3.8558 C   0  0  0  0  0  0  0  0  0  0  0  0
  -87.9192   37.6554   -3.7218 C   0  0  0  0  0  0  0  0  0  0  0  0
  -89.2714   37.3071   -8.2098 C   0  0  0  0  0  0  0  0  0  0  0  0
  -89.3251   36.6984   -6.8776 N   0  0  0  0  0  0  0  0  0  0  0  0
  -88.1539   36.1784   -6.3074 C   0  0  0  0  0  0  0  0  0  0  0  0
  -87.0751   36.2962   -7.0240 O   0  0  0  0  0  0  0  0  0  0  0  0
  -90.2622   36.7329   -6.4347 H   0  0  0  0  0  0  0  0  0  0  0  0
 31 32  1  0  0  0
 32 33  1  0  0  0
 33 34  2  0  0  0
 33 23  1  0  0  0
 23 24  2  0  0  0
 24 25  1  0  0  0
 25 26  1  0  0  0
 25 27  2  0  0  0
 27 21  1  0  0  0
 21  1  1  0  0  0
  1  2  2  0  0  0
  2  3  1  0  0  0
  3  4  2  0  0  0
  4  5  1  0  0  0
  5  6  2  0  0  0
  5  7  1  0  0  0
  7  8  1  0  0  0
  8  9  2  0  0  0
  9 10  1  0  0  0
 10 11  1  0  0  0
 11 12  2  0  0  0
 12 13  1  0  0  0
 13 14  2  0  0  0
 14 15  1  0  0  0
 13 16  1  0  0  0
 16 17  1  0  0  0
 16 18  2  0  0  0
 27 28  1  0  0  0
 28 29  2  0  0  0
 29 30  1  0  0  0
 29 23  1  0  0  0
  6  1  1  0  0  0
 15  7  2  0  0  0
 15 10  1  0  0  0
 32 35  1  0  0  0
 21 22  1  0  0  0
 17 19  1  0  0  0
 17 20  1  0  0  0
M  END
> <minimizedAffinity>
-9.05893

> <CNNscore>
0.7555054426

> <CNNaffinity>
7.2979097366

> <CNN_VS>
5.5136103630

> <CNNaffinity_variance>
0.0666232482

$$$$
[H]c1nc(N([H])c2c([H])c(C([H])([H])[H])c(C(=O)N([H])C([H])([H])[H])c([H])c2F)nc(-c2c([H])nn3c([H])c([H])c(C(=O)N([H])[H])c([H])c23)c1[H]


 35 38  0  0  0  0  0  0  0  0999 V2000
  -88.5619   32.3980   -1.1383 C   0  0  0  0  0  0  0  0  0  0  0  0
  -88.5632   33.4483   -1.9542 N   0  0  0  0  0  0  0  0  0  0  0  0
  -87.4743   34.1554   -2.2938 C   0  0  0  0  0  0  0  0  0  0  0  0
  -86.2663   33.7698   -1.7611 C   0  0  0  0  0  0  0  0  0  0  0  0
  -86.2025   32.6640   -0.8904 C   0  0  0  0  0  0  0  0  0  0  0  0
  -87.3527   32.0550   -0.6392 N   0  0  0  0  0  0  0  0  0  0  0  0
  -84.9331   32.2822   -0.3030 C   0  0  0  0  0  0  0  0  0  0  0  0
  -83.7492   33.0276   -0.3266 C   0  0  0  0  0  0  0  0  0  0  0  0
  -82.8130   32.3432    0.3471 N   0  0  0  0  0  0  0  0  0  0  0  0
  -83.3201   31.2093    0.8013 N   0  0  0  0  0  0  0  0  0  0  0  0
  -82.7389   30.2411    1.5280 C   0  0  0  0  0  0  0  0  0  0  0  0
  -83.5075   29.1521    1.8854 C   0  0  0  0  0  0  0  0  0  0  0  0
  -84.8363   29.0458    1.5156 C   0  0  0  0  0  0  0  0  0  0  0  0
  -85.4087   30.0578    0.7670 C   0  0  0  0  0  0  0  0  0  0  0  0
  -84.6346   31.1504    0.4090 C   0  0  0  0  0  0  0  0  0  0  0  0
  -85.6091   27.8728    1.9295 C   0  0  0  0  0  0  0  0  0  0  0  0
  -87.0245   27.8448    1.9929 N   0  0  0  0  0  0  0  0  0  0  0  0
  -84.9952   26.8179    2.2510 O   0  0  0  0  0  0  0  0  0  0  0  0
  -87.5052   28.6480    2.4485 H   0  0  0  0  0  0  0  0  0  0  0  0
  -87.6198   27.0807    1.6153 H   0  0  0  0  0  0  0  0  0  0  0  0
  -89.7238   31.6782   -0.7782 N   0  0  0  0  0  0  0  0  0  0  0  0
  -90.1679   32.0441    0.1483 H   0  0  0  0  0  0  0  0  0  0  0  0
  -91.5752   28.3358   -2.6134 C   0  0  0  0  0  0  0  0  0  0  0  0
  -90.7929   28.2408   -1.4412 C   0  0  0  0  0  0  0  0  0  0  0  0
  -90.2032   29.3278   -0.8813 C   0  0  0  0  0  0  0  0  0  0  0  0
  -89.4615   29.2022    0.2452 F   0  0  0  0  0  0  0  0  0  0  0  0
  -90.3361   30.6104   -1.4373 C   0  0  0  0  0  0  0  0  0  0  0  0
  -91.0841   30.7075   -2.5571 C   0  0  0  0  0  0  0  0  0  0  0  0
  -91.7133   29.5704   -3.1551 C   0  0  0  0  0  0  0  0  0  0  0  0
  -92.5940   29.8324   -4.3263 C   0  0  0  0  0  0  0  0  0  0  0  0
  -93.5588   25.1703   -3.6166 C   0  0  0  0  0  0  0  0  0  0  0  0
  -93.2526   26.4045   -2.8878 N   0  0  0  0  0  0  0  0  0  0  0  0
  -92.0832   27.1161   -3.1940 C   0  0  0  0  0  0  0  0  0  0  0  0
  -91.3480   26.6151   -4.1424 O   0  0  0  0  0  0  0  0  0  0  0  0
  -93.9756   26.6774   -2.1964 H   0  0  0  0  0  0  0  0  0  0  0  0
 31 32  1  0  0  0
 32 33  1  0  0  0
 33 34  2  0  0  0
 33 23  1  0  0  0
 23 24  2  0  0  0
 24 25  1  0  0  0
 25 26  1  0  0  0
 25 27  2  0  0  0
 27 21  1  0  0  0
 21  1  1  0  0  0
  1  2  2  0  0  0
  2  3  1  0  0  0
  3  4  2  0  0  0
  4  5  1  0  0  0
  5  6  2  0  0  0
  5  7  1  0  0  0
  7  8  1  0  0  0
  8  9  2  0  0  0
  9 10  1  0  0  0
 10 11  1  0  0  0
 11 12  2  0  0  0
 12 13  1  0  0  0
 13 14  2  0  0  0
 14 15  1  0  0  0
 13 16  1  0  0  0
 16 17  1  0  0  0
 16 18  2  0  0  0
 27 28  1  0  0  0
 28 29  2  0  0  0
 29 30  1  0  0  0
 29 23  1  0  0  0
  6  1  1  0  0  0
 15  7  2  0  0  0
 15 10  1  0  0  0
 32 35  1  0  0  0
 21 22  1  0  0  0
 17 19  1  0  0  0
 17 20  1  0  0  0
M  END
> <minimizedAffinity>
-8.94605

> <CNNscore>
0.4750195742

> <CNNaffinity>
7.0090575218

> <CNN_VS>
3.3294394016

> <CNNaffinity_variance>
0.0782673880

$$$$
[H]c1nc(N([H])c2c([H])c(C([H])([H])[H])c(C(=O)N([H])C([H])([H])[H])c([H])c2F)nc(-c2c([H])nn3c([H])c([H])c(C(=O)N([H])[H])c([H])c23)c1[H]


 35 38  0  0  0  0  0  0  0  0999 V2000
  -89.7682   30.4735   -1.7630 C   0  0  0  0  0  0  0  0  0  0  0  0
  -89.8875   31.0872   -2.9368 N   0  0  0  0  0  0  0  0  0  0  0  0
  -88.9738   31.9174   -3.4632 C   0  0  0  0  0  0  0  0  0  0  0  0
  -87.8288   32.1544   -2.7390 C   0  0  0  0  0  0  0  0  0  0  0  0
  -87.6460   31.5320   -1.4884 C   0  0  0  0  0  0  0  0  0  0  0  0
  -88.6266   30.7357   -1.0868 N   0  0  0  0  0  0  0  0  0  0  0  0
  -86.4540   31.8118   -0.7119 C   0  0  0  0  0  0  0  0  0  0  0  0
  -85.7552   33.0234   -0.6702 C   0  0  0  0  0  0  0  0  0  0  0  0
  -84.7300   32.8833    0.1830 N   0  0  0  0  0  0  0  0  0  0  0  0
  -84.7272   31.6622    0.6910 N   0  0  0  0  0  0  0  0  0  0  0  0
  -83.8913   31.1074    1.5836 C   0  0  0  0  0  0  0  0  0  0  0  0
  -84.1224   29.7998    1.9591 C   0  0  0  0  0  0  0  0  0  0  0  0
  -85.1777   29.0695    1.4426 C   0  0  0  0  0  0  0  0  0  0  0  0
  -86.0226   29.6663    0.5249 C   0  0  0  0  0  0  0  0  0  0  0  0
  -85.7882   30.9797    0.1490 C   0  0  0  0  0  0  0  0  0  0  0  0
  -85.3832   27.6879    1.8824 C   0  0  0  0  0  0  0  0  0  0  0  0
  -86.6372   27.0288    1.8474 N   0  0  0  0  0  0  0  0  0  0  0  0
  -84.3975   27.0321    2.3199 O   0  0  0  0  0  0  0  0  0  0  0  0
  -87.4658   27.5440    2.2102 H   0  0  0  0  0  0  0  0  0  0  0  0
  -86.7915   26.0673    1.4835 H   0  0  0  0  0  0  0  0  0  0  0  0
  -90.7516   29.6172   -1.2176 N   0  0  0  0  0  0  0  0  0  0  0  0
  -91.7315   29.7687   -1.6719 H   0  0  0  0  0  0  0  0  0  0  0  0
  -90.2236   26.5909    1.7030 C   0  0  0  0  0  0  0  0  0  0  0  0
  -89.9256   26.4068    0.3347 C   0  0  0  0  0  0  0  0  0  0  0  0
  -90.1147   27.3917   -0.5803 C   0  0  0  0  0  0  0  0  0  0  0  0
  -89.8158   27.1829   -1.8849 F   0  0  0  0  0  0  0  0  0  0  0  0
  -90.6197   28.6509   -0.2184 C   0  0  0  0  0  0  0  0  0  0  0  0
  -90.9050   28.8332    1.0886 C   0  0  0  0  0  0  0  0  0  0  0  0
  -90.7073   27.8046    2.0631 C   0  0  0  0  0  0  0  0  0  0  0  0
  -90.9633   28.1707    3.4831 C   0  0  0  0  0  0  0  0  0  0  0  0
  -90.6229   23.3717    3.8099 C   0  0  0  0  0  0  0  0  0  0  0  0
  -90.9876   24.4198    2.8525 N   0  0  0  0  0  0  0  0  0  0  0  0
  -90.0843   25.4598    2.5886 C   0  0  0  0  0  0  0  0  0  0  0  0
  -88.9514   25.4002    3.2242 O   0  0  0  0  0  0  0  0  0  0  0  0
  -91.9134   24.2810    2.4064 H   0  0  0  0  0  0  0  0  0  0  0  0
 31 32  1  0  0  0
 32 33  1  0  0  0
 33 34  2  0  0  0
 33 23  1  0  0  0
 23 24  2  0  0  0
 24 25  1  0  0  0
 25 26  1  0  0  0
 25 27  2  0  0  0
 27 21  1  0  0  0
 21  1  1  0  0  0
  1  2  2  0  0  0
  2  3  1  0  0  0
  3  4  2  0  0  0
  4  5  1  0  0  0
  5  6  2  0  0  0
  5  7  1  0  0  0
  7  8  1  0  0  0
  8  9  2  0  0  0
  9 10  1  0  0  0
 10 11  1  0  0  0
 11 12  2  0  0  0
 12 13  1  0  0  0
 13 14  2  0  0  0
 14 15  1  0  0  0
 13 16  1  0  0  0
 16 17  1  0  0  0
 16 18  2  0  0  0
 27 28  1  0  0  0
 28 29  2  0  0  0
 29 30  1  0  0  0
 29 23  1  0  0  0
  6  1  1  0  0  0
 15  7  2  0  0  0
 15 10  1  0  0  0
 32 35  1  0  0  0
 21 22  1  0  0  0
 17 19  1  0  0  0
 17 20  1  0  0  0
M  END
> <minimizedAffinity>
-9.02589

> <CNNscore>
0.4471646249

> <CNNaffinity>
7.2384786606

> <CNN_VS>
3.2367916107

> <CNNaffinity_variance>
0.1923347414

$$$$
[H]Oc1c([H])c([H])c(-c2c([H])nc3c(c2[H])c(-c2c([H])c([H])c([H])c(O[H])c2[H])c([H])n3[H])c(O[H])c1[H]


 28 31  0  0  0  0  0  0  0  0999 V2000
  -83.5933   30.9393    0.8400 C   0  0  0  0  0  0  0  0  0  0  0  0
  -82.4077   31.6380    0.9326 C   0  0  0  0  0  0  0  0  0  0  0  0
  -82.5004   32.8010    0.2231 N   0  0  0  0  0  0  0  0  0  0  0  0
  -83.7237   32.8695   -0.3279 C   0  0  0  0  0  0  0  0  0  0  0  0
  -84.3063   33.7945   -1.1057 N   0  0  0  0  0  0  0  0  0  0  0  0
  -85.5672   33.5990   -1.5212 C   0  0  0  0  0  0  0  0  0  0  0  0
  -86.2974   32.4650   -1.1727 C   0  0  0  0  0  0  0  0  0  0  0  0
  -85.7065   31.5099   -0.3739 C   0  0  0  0  0  0  0  0  0  0  0  0
  -84.4102   31.7219    0.0470 C   0  0  0  0  0  0  0  0  0  0  0  0
  -81.7359   33.5261    0.1246 H   0  0  0  0  0  0  0  0  0  0  0  0
  -87.6619   32.2605   -1.6234 C   0  0  0  0  0  0  0  0  0  0  0  0
  -88.6609   32.0292   -0.7013 C   0  0  0  0  0  0  0  0  0  0  0  0
  -89.9831   31.8270   -1.1078 C   0  0  0  0  0  0  0  0  0  0  0  0
  -90.2975   31.8573   -2.4296 C   0  0  0  0  0  0  0  0  0  0  0  0
  -91.6144   31.6579   -2.8658 O   0  0  0  0  0  0  0  0  0  0  0  0
  -89.3137   32.0865   -3.3593 C   0  0  0  0  0  0  0  0  0  0  0  0
  -87.9928   32.2890   -2.9612 C   0  0  0  0  0  0  0  0  0  0  0  0
  -87.0425   32.5163   -3.9451 O   0  0  0  0  0  0  0  0  0  0  0  0
  -92.3644   31.4867   -2.2117 H   0  0  0  0  0  0  0  0  0  0  0  0
  -87.2738   32.5382   -4.9121 H   0  0  0  0  0  0  0  0  0  0  0  0
  -82.0710   26.9074    3.1101 O   0  0  0  0  0  0  0  0  0  0  0  0
  -83.1032   27.6689    2.5786 C   0  0  0  0  0  0  0  0  0  0  0  0
  -84.3755   27.1564    2.6641 C   0  0  0  0  0  0  0  0  0  0  0  0
  -85.4114   27.8965    2.1432 C   0  0  0  0  0  0  0  0  0  0  0  0
  -85.1772   29.1376    1.5424 C   0  0  0  0  0  0  0  0  0  0  0  0
  -83.9029   29.6563    1.4540 C   0  0  0  0  0  0  0  0  0  0  0  0
  -82.8737   28.8933    1.9856 C   0  0  0  0  0  0  0  0  0  0  0  0
  -81.7595   26.9810    4.0667 H   0  0  0  0  0  0  0  0  0  0  0  0
 21 22  1  0  0  0
 22 23  2  0  0  0
 23 24  1  0  0  0
 24 25  2  0  0  0
 25 26  1  0  0  0
 26 27  2  0  0  0
 26  1  1  0  0  0
  1  2  2  0  0  0
  2  3  1  0  0  0
  3  4  1  0  0  0
  4  5  2  0  0  0
  5  6  1  0  0  0
  6  7  2  0  0  0
  7  8  1  0  0  0
  8  9  2  0  0  0
  7 11  1  0  0  0
 11 12  2  0  0  0
 12 13  1  0  0  0
 13 14  2  0  0  0
 14 15  1  0  0  0
 14 16  1  0  0  0
 16 17  2  0  0  0
 17 18  1  0  0  0
 27 22  1  0  0  0
  9  1  1  0  0  0
 17 11  1  0  0  0
  9  4  1  0  0  0
 21 28  1  0  0  0
  3 10  1  0  0  0
 15 19  1  0  0  0
 18 20  1  0  0  0
M  END
> <minimizedAffinity>
-10.28781

> <CNNscore>
0.9629466534

> <CNNaffinity>
6.9225745201

> <CNN_VS>
6.6660699844

> <CNNaffinity_variance>
0.0457933061

$$$$
[H]Oc1c([H])c([H])c(-c2c([H])nc3c(c2[H])c(-c2c([H])c([H])c([H])c(O[H])c2[H])c([H])n3[H])c(O[H])c1[H]


 28 31  0  0  0  0  0  0  0  0999 V2000
  -88.1425   32.1500   -1.5523 C   0  0  0  0  0  0  0  0  0  0  0  0
  -88.1255   33.4081   -2.1175 C   0  0  0  0  0  0  0  0  0  0  0  0
  -86.9369   34.0216   -1.8430 N   0  0  0  0  0  0  0  0  0  0  0  0
  -86.1830   33.1852   -1.1104 C   0  0  0  0  0  0  0  0  0  0  0  0
  -84.9517   33.3087   -0.5920 N   0  0  0  0  0  0  0  0  0  0  0  0
  -84.4344   32.2913    0.1137 C   0  0  0  0  0  0  0  0  0  0  0  0
  -85.1325   31.1052    0.3289 C   0  0  0  0  0  0  0  0  0  0  0  0
  -86.3979   30.9699   -0.2002 C   0  0  0  0  0  0  0  0  0  0  0  0
  -86.9189   32.0222   -0.9236 C   0  0  0  0  0  0  0  0  0  0  0  0
  -86.6576   34.9933   -2.1555 H   0  0  0  0  0  0  0  0  0  0  0  0
  -84.5665   30.0073    1.0911 C   0  0  0  0  0  0  0  0  0  0  0  0
  -83.2242   30.0127    1.4074 C   0  0  0  0  0  0  0  0  0  0  0  0
  -82.6526   28.9672    2.1386 C   0  0  0  0  0  0  0  0  0  0  0  0
  -83.4241   27.9259    2.5479 C   0  0  0  0  0  0  0  0  0  0  0  0
  -82.8781   26.8644    3.2821 O   0  0  0  0  0  0  0  0  0  0  0  0
  -84.7620   27.9067    2.2405 C   0  0  0  0  0  0  0  0  0  0  0  0
  -85.3390   28.9459    1.5117 C   0  0  0  0  0  0  0  0  0  0  0  0
  -86.6950   28.8719    1.2316 O   0  0  0  0  0  0  0  0  0  0  0  0
  -81.8986   26.8437    3.5269 H   0  0  0  0  0  0  0  0  0  0  0  0
  -87.2585   28.1094    1.5317 H   0  0  0  0  0  0  0  0  0  0  0  0
  -91.2381   29.4985   -4.2196 O   0  0  0  0  0  0  0  0  0  0  0  0
  -90.7435   29.8789   -2.9792 C   0  0  0  0  0  0  0  0  0  0  0  0
  -91.3144   29.3058   -1.8682 C   0  0  0  0  0  0  0  0  0  0  0  0
  -90.8376   29.6702   -0.6305 C   0  0  0  0  0  0  0  0  0  0  0  0
  -89.7994   30.5990   -0.5049 C   0  0  0  0  0  0  0  0  0  0  0  0
  -89.2232   31.1769   -1.6161 C   0  0  0  0  0  0  0  0  0  0  0  0
  -89.7195   30.7950   -2.8537 C   0  0  0  0  0  0  0  0  0  0  0  0
  -90.8743   28.7217   -4.7503 H   0  0  0  0  0  0  0  0  0  0  0  0
 21 22  1  0  0  0
 22 23  2  0  0  0
 23 24  1  0  0  0
 24 25  2  0  0  0
 25 26  1  0  0  0
 26 27  2  0  0  0
 26  1  1  0  0  0
  1  2  2  0  0  0
  2  3  1  0  0  0
  3  4  1  0  0  0
  4  5  2  0  0  0
  5  6  1  0  0  0
  6  7  2  0  0  0
  7  8  1  0  0  0
  8  9  2  0  0  0
  7 11  1  0  0  0
 11 12  2  0  0  0
 12 13  1  0  0  0
 13 14  2  0  0  0
 14 15  1  0  0  0
 14 16  1  0  0  0
 16 17  2  0  0  0
 17 18  1  0  0  0
 27 22  1  0  0  0
  9  1  1  0  0  0
 17 11  1  0  0  0
  9  4  1  0  0  0
 21 28  1  0  0  0
  3 10  1  0  0  0
 15 19  1  0  0  0
 18 20  1  0  0  0
M  END
> <minimizedAffinity>
-10.26044

> <CNNscore>
0.8271785975

> <CNNaffinity>
6.7063703537

> <CNN_VS>
5.5473661423

> <CNNaffinity_variance>
0.2476659119

$$$$
[H]Oc1c([H])c([H])c(-c2c([H])nc3c(c2[H])c(-c2c([H])c([H])c([H])c(O[H])c2[H])c([H])n3[H])c(O[H])c1[H]


 28 31  0  0  0  0  0  0  0  0999 V2000
  -83.8867   31.2211    0.6603 C   0  0  0  0  0  0  0  0  0  0  0  0
  -82.9618   32.2442    0.6744 C   0  0  0  0  0  0  0  0  0  0  0  0
  -83.4167   33.2884   -0.0789 N   0  0  0  0  0  0  0  0  0  0  0  0
  -84.6191   32.9615   -0.5811 C   0  0  0  0  0  0  0  0  0  0  0  0
  -85.4721   33.6296   -1.3723 N   0  0  0  0  0  0  0  0  0  0  0  0
  -86.6278   33.0470   -1.7266 C   0  0  0  0  0  0  0  0  0  0  0  0
  -86.9764   31.7672   -1.3009 C   0  0  0  0  0  0  0  0  0  0  0  0
  -86.1059   31.0740   -0.4878 C   0  0  0  0  0  0  0  0  0  0  0  0
  -84.9212   31.6830   -0.1303 C   0  0  0  0  0  0  0  0  0  0  0  0
  -82.9066   34.2016   -0.2393 H   0  0  0  0  0  0  0  0  0  0  0  0
  -88.2292   31.1434   -1.6857 C   0  0  0  0  0  0  0  0  0  0  0  0
  -88.2181   30.0156   -2.4792 C   0  0  0  0  0  0  0  0  0  0  0  0
  -89.4099   29.3958   -2.8663 C   0  0  0  0  0  0  0  0  0  0  0  0
  -90.6019   29.9057   -2.4588 C   0  0  0  0  0  0  0  0  0  0  0  0
  -91.8121   29.3053   -2.8314 O   0  0  0  0  0  0  0  0  0  0  0  0
  -90.6289   31.0280   -1.6684 C   0  0  0  0  0  0  0  0  0  0  0  0
  -89.4442   31.6515   -1.2785 C   0  0  0  0  0  0  0  0  0  0  0  0
  -89.5339   32.7814   -0.4798 O   0  0  0  0  0  0  0  0  0  0  0  0
  -91.8321   28.4791   -3.4117 H   0  0  0  0  0  0  0  0  0  0  0  0
  -90.4069   33.1536   -0.1823 H   0  0  0  0  0  0  0  0  0  0  0  0
  -86.0293   27.1695    2.3101 O   0  0  0  0  0  0  0  0  0  0  0  0
  -84.8871   27.9414    2.1441 C   0  0  0  0  0  0  0  0  0  0  0  0
  -83.7078   27.4402    2.6410 C   0  0  0  0  0  0  0  0  0  0  0  0
  -82.5655   28.1906    2.4861 C   0  0  0  0  0  0  0  0  0  0  0  0
  -82.6020   29.4307    1.8401 C   0  0  0  0  0  0  0  0  0  0  0  0
  -83.7823   29.9380    1.3399 C   0  0  0  0  0  0  0  0  0  0  0  0
  -84.9216   29.1648    1.5073 C   0  0  0  0  0  0  0  0  0  0  0  0
  -86.3387   26.4809    1.6410 H   0  0  0  0  0  0  0  0  0  0  0  0
 21 22  1  0  0  0
 22 23  2  0  0  0
 23 24  1  0  0  0
 24 25  2  0  0  0
 25 26  1  0  0  0
 26 27  2  0  0  0
 26  1  1  0  0  0
  1  2  2  0  0  0
  2  3  1  0  0  0
  3  4  1  0  0  0
  4  5  2  0  0  0
  5  6  1  0  0  0
  6  7  2  0  0  0
  7  8  1  0  0  0
  8  9  2  0  0  0
  7 11  1  0  0  0
 11 12  2  0  0  0
 12 13  1  0  0  0
 13 14  2  0  0  0
 14 15  1  0  0  0
 14 16  1  0  0  0
 16 17  2  0  0  0
 17 18  1  0  0  0
 27 22  1  0  0  0
  9  1  1  0  0  0
 17 11  1  0  0  0
  9  4  1  0  0  0
 21 28  1  0  0  0
  3 10  1  0  0  0
 15 19  1  0  0  0
 18 20  1  0  0  0
M  END
> <minimizedAffinity>
-9.61012

> <CNNscore>
0.6066547036

> <CNNaffinity>
6.3364782333

> <CNN_VS>
3.8440542221

> <CNNaffinity_variance>
0.0879266486

$$$$
[H]Oc1c([H])c([H])c(-c2c([H])nc3c(c2[H])c(-c2c([H])c([H])c([H])c(O[H])c2[H])c([H])n3[H])c(O[H])c1[H]


 28 31  0  0  0  0  0  0  0  0999 V2000
  -88.5647   31.8148   -1.5179 C   0  0  0  0  0  0  0  0  0  0  0  0
  -88.6776   33.0832   -2.0478 C   0  0  0  0  0  0  0  0  0  0  0  0
  -87.5639   33.8120   -1.7426 N   0  0  0  0  0  0  0  0  0  0  0  0
  -86.7310   33.0401   -1.0248 C   0  0  0  0  0  0  0  0  0  0  0  0
  -85.5246   33.2794   -0.4890 N   0  0  0  0  0  0  0  0  0  0  0  0
  -84.9075   32.3032    0.1942 C   0  0  0  0  0  0  0  0  0  0  0  0
  -85.4763   31.0436    0.3685 C   0  0  0  0  0  0  0  0  0  0  0  0
  -86.7154   30.7893   -0.1789 C   0  0  0  0  0  0  0  0  0  0  0  0
  -87.3399   31.8003   -0.8788 C   0  0  0  0  0  0  0  0  0  0  0  0
  -87.3875   34.8166   -2.0249 H   0  0  0  0  0  0  0  0  0  0  0  0
  -84.8026   29.9909    1.1065 C   0  0  0  0  0  0  0  0  0  0  0  0
  -85.5149   28.8910    1.5359 C   0  0  0  0  0  0  0  0  0  0  0  0
  -84.8917   27.8636    2.2503 C   0  0  0  0  0  0  0  0  0  0  0  0
  -83.5641   27.9419    2.5301 C   0  0  0  0  0  0  0  0  0  0  0  0
  -82.9131   26.9270    3.2444 O   0  0  0  0  0  0  0  0  0  0  0  0
  -82.8418   29.0309    2.1091 C   0  0  0  0  0  0  0  0  0  0  0  0
  -83.4567   30.0593    1.3961 C   0  0  0  0  0  0  0  0  0  0  0  0
  -82.6762   31.1337    0.9969 O   0  0  0  0  0  0  0  0  0  0  0  0
  -83.4111   26.1112    3.5703 H   0  0  0  0  0  0  0  0  0  0  0  0
  -81.7048   31.1898    1.2023 H   0  0  0  0  0  0  0  0  0  0  0  0
  -91.7488   28.8256    0.6392 O   0  0  0  0  0  0  0  0  0  0  0  0
  -91.1057   29.2685   -0.5088 C   0  0  0  0  0  0  0  0  0  0  0  0
  -91.4274   28.6487   -1.6926 C   0  0  0  0  0  0  0  0  0  0  0  0
  -90.8006   29.0738   -2.8408 C   0  0  0  0  0  0  0  0  0  0  0  0
  -89.8608   30.1091   -2.8058 C   0  0  0  0  0  0  0  0  0  0  0  0
  -89.5345   30.7342   -1.6211 C   0  0  0  0  0  0  0  0  0  0  0  0
  -90.1784   30.2895   -0.4759 C   0  0  0  0  0  0  0  0  0  0  0  0
  -92.6202   29.2088    0.9730 H   0  0  0  0  0  0  0  0  0  0  0  0
 21 22  1  0  0  0
 22 23  2  0  0  0
 23 24  1  0  0  0
 24 25  2  0  0  0
 25 26  1  0  0  0
 26 27  2  0  0  0
 26  1  1  0  0  0
  1  2  2  0  0  0
  2  3  1  0  0  0
  3  4  1  0  0  0
  4  5  2  0  0  0
  5  6  1  0  0  0
  6  7  2  0  0  0
  7  8  1  0  0  0
  8  9  2  0  0  0
  7 11  1  0  0  0
 11 12  2  0  0  0
 12 13  1  0  0  0
 13 14  2  0  0  0
 14 15  1  0  0  0
 14 16  1  0  0  0
 16 17  2  0  0  0
 17 18  1  0  0  0
 27 22  1  0  0  0
  9  1  1  0  0  0
 17 11  1  0  0  0
  9  4  1  0  0  0
 21 28  1  0  0  0
  3 10  1  0  0  0
 15 19  1  0  0  0
 18 20  1  0  0  0
M  END
> <minimizedAffinity>
-10.16560

> <CNNscore>
0.4823114276

> <CNNaffinity>
6.3569345474

> <CNN_VS>
3.0660221577

> <CNNaffinity_variance>
0.2196464092

$$$$
[H]Oc1c([H])c([H])c(-c2c([H])nc3c(c2[H])c(-c2c([H])c([H])c([H])c(O[H])c2[H])c([H])n3[H])c(O[H])c1[H]


 28 31  0  0  0  0  0  0  0  0999 V2000
  -84.7514   29.7893    1.2150 C   0  0  0  0  0  0  0  0  0  0  0  0
  -83.6289   29.4228    1.9279 C   0  0  0  0  0  0  0  0  0  0  0  0
  -83.8014   28.1731    2.4505 N   0  0  0  0  0  0  0  0  0  0  0  0
  -85.0146   27.7225    2.0901 C   0  0  0  0  0  0  0  0  0  0  0  0
  -85.6550   26.5710    2.3428 N   0  0  0  0  0  0  0  0  0  0  0  0
  -86.8876   26.3858    1.8457 C   0  0  0  0  0  0  0  0  0  0  0  0
  -87.5301   27.3502    1.0727 C   0  0  0  0  0  0  0  0  0  0  0  0
  -86.8793   28.5360    0.8082 C   0  0  0  0  0  0  0  0  0  0  0  0
  -85.6129   28.7149    1.3244 C   0  0  0  0  0  0  0  0  0  0  0  0
  -83.0967   27.6485    3.0404 H   0  0  0  0  0  0  0  0  0  0  0  0
  -88.8626   27.1428    0.5358 C   0  0  0  0  0  0  0  0  0  0  0  0
  -89.9579   27.6433    1.2078 C   0  0  0  0  0  0  0  0  0  0  0  0
  -91.2525   27.4564    0.7143 C   0  0  0  0  0  0  0  0  0  0  0  0
  -91.4435   26.7725   -0.4445 C   0  0  0  0  0  0  0  0  0  0  0  0
  -92.7298   26.5700   -0.9627 O   0  0  0  0  0  0  0  0  0  0  0  0
  -90.3627   26.2685   -1.1247 C   0  0  0  0  0  0  0  0  0  0  0  0
  -89.0686   26.4510   -0.6385 C   0  0  0  0  0  0  0  0  0  0  0  0
  -88.0164   25.9196   -1.3687 O   0  0  0  0  0  0  0  0  0  0  0  0
  -93.5485   26.9258   -0.4906 H   0  0  0  0  0  0  0  0  0  0  0  0
  -88.1575   25.4193   -2.2165 H   0  0  0  0  0  0  0  0  0  0  0  0
  -82.9949   34.0234   -0.4327 O   0  0  0  0  0  0  0  0  0  0  0  0
  -84.0523   33.1340   -0.2960 C   0  0  0  0  0  0  0  0  0  0  0  0
  -85.2578   33.4956   -0.8482 C   0  0  0  0  0  0  0  0  0  0  0  0
  -86.3173   32.6273   -0.7231 C   0  0  0  0  0  0  0  0  0  0  0  0
  -86.1727   31.4087   -0.0521 C   0  0  0  0  0  0  0  0  0  0  0  0
  -84.9657   31.0411    0.5036 C   0  0  0  0  0  0  0  0  0  0  0  0
  -83.9113   31.9315    0.3656 C   0  0  0  0  0  0  0  0  0  0  0  0
  -82.3513   34.0089   -1.2093 H   0  0  0  0  0  0  0  0  0  0  0  0
 21 22  1  0  0  0
 22 23  2  0  0  0
 23 24  1  0  0  0
 24 25  2  0  0  0
 25 26  1  0  0  0
 26 27  2  0  0  0
 26  1  1  0  0  0
  1  2  2  0  0  0
  2  3  1  0  0  0
  3  4  1  0  0  0
  4  5  2  0  0  0
  5  6  1  0  0  0
  6  7  2  0  0  0
  7  8  1  0  0  0
  8  9  2  0  0  0
  7 11  1  0  0  0
 11 12  2  0  0  0
 12 13  1  0  0  0
 13 14  2  0  0  0
 14 15  1  0  0  0
 14 16  1  0  0  0
 16 17  2  0  0  0
 17 18  1  0  0  0
 27 22  1  0  0  0
  9  1  1  0  0  0
 17 11  1  0  0  0
  9  4  1  0  0  0
 21 28  1  0  0  0
  3 10  1  0  0  0
 15 19  1  0  0  0
 18 20  1  0  0  0
M  END
> <minimizedAffinity>
-9.58050

> <CNNscore>
0.4616390467

> <CNNaffinity>
6.2228765488

> <CNN_VS>
2.8727228642

> <CNNaffinity_variance>
0.1154624969

$$$$
[H]Oc1c([H])c([H])c(-c2c([H])nc3c(c2[H])c(-c2c([H])c([H])c([H])c(O[H])c2[H])c([H])n3[H])c(O[H])c1[H]


 28 31  0  0  0  0  0  0  0  0999 V2000
  -90.6518   29.1196    0.1725 C   0  0  0  0  0  0  0  0  0  0  0  0
  -91.7945   29.0099   -0.5920 C   0  0  0  0  0  0  0  0  0  0  0  0
  -91.6717   29.7723   -1.7181 N   0  0  0  0  0  0  0  0  0  0  0  0
  -90.4709   30.3743   -1.6982 C   0  0  0  0  0  0  0  0  0  0  0  0
  -89.8745   31.2142   -2.5577 N   0  0  0  0  0  0  0  0  0  0  0  0
  -88.6442   31.6710   -2.2779 C   0  0  0  0  0  0  0  0  0  0  0  0
  -87.9597   31.3032   -1.1217 C   0  0  0  0  0  0  0  0  0  0  0  0
  -88.5651   30.4407   -0.2335 C   0  0  0  0  0  0  0  0  0  0  0  0
  -89.8296   29.9779   -0.5318 C   0  0  0  0  0  0  0  0  0  0  0  0
  -92.4010   29.8715   -2.4785 H   0  0  0  0  0  0  0  0  0  0  0  0
  -86.6280   31.7989   -0.8260 C   0  0  0  0  0  0  0  0  0  0  0  0
  -86.2473   33.0479   -1.2694 C   0  0  0  0  0  0  0  0  0  0  0  0
  -84.9702   33.5491   -1.0005 C   0  0  0  0  0  0  0  0  0  0  0  0
  -84.0843   32.8008   -0.2920 C   0  0  0  0  0  0  0  0  0  0  0  0
  -82.7975   33.2776   -0.0077 O   0  0  0  0  0  0  0  0  0  0  0  0
  -84.4489   31.5553    0.1561 C   0  0  0  0  0  0  0  0  0  0  0  0
  -85.7209   31.0490   -0.1082 C   0  0  0  0  0  0  0  0  0  0  0  0
  -86.0325   29.7854    0.3701 O   0  0  0  0  0  0  0  0  0  0  0  0
  -82.4935   34.1884   -0.3206 H   0  0  0  0  0  0  0  0  0  0  0  0
  -85.3832   29.2387    0.8885 H   0  0  0  0  0  0  0  0  0  0  0  0
  -88.1565   25.8115    2.7334 O   0  0  0  0  0  0  0  0  0  0  0  0
  -89.1218   26.8079    2.6775 C   0  0  0  0  0  0  0  0  0  0  0  0
  -89.7779   27.1187    3.8444 C   0  0  0  0  0  0  0  0  0  0  0  0
  -90.7377   28.1034    3.8088 C   0  0  0  0  0  0  0  0  0  0  0  0
  -91.0386   28.7712    2.6173 C   0  0  0  0  0  0  0  0  0  0  0  0
  -90.3836   28.4634    1.4439 C   0  0  0  0  0  0  0  0  0  0  0  0
  -89.4199   27.4676    1.5029 C   0  0  0  0  0  0  0  0  0  0  0  0
  -87.1834   25.9888    2.9314 H   0  0  0  0  0  0  0  0  0  0  0  0
 21 22  1  0  0  0
 22 23  2  0  0  0
 23 24  1  0  0  0
 24 25  2  0  0  0
 25 26  1  0  0  0
 26 27  2  0  0  0
 26  1  1  0  0  0
  1  2  2  0  0  0
  2  3  1  0  0  0
  3  4  1  0  0  0
  4  5  2  0  0  0
  5  6  1  0  0  0
  6  7  2  0  0  0
  7  8  1  0  0  0
  8  9  2  0  0  0
  7 11  1  0  0  0
 11 12  2  0  0  0
 12 13  1  0  0  0
 13 14  2  0  0  0
 14 15  1  0  0  0
 14 16  1  0  0  0
 16 17  2  0  0  0
 17 18  1  0  0  0
 27 22  1  0  0  0
  9  1  1  0  0  0
 17 11  1  0  0  0
  9  4  1  0  0  0
 21 28  1  0  0  0
  3 10  1  0  0  0
 15 19  1  0  0  0
 18 20  1  0  0  0
M  END
> <minimizedAffinity>
-8.87877

> <CNNscore>
0.4258162975

> <CNNaffinity>
5.8987951279

> <CNN_VS>
2.5118031502

> <CNNaffinity_variance>
0.1764609516

$$$$
[H]Oc1c([H])c([H])c(-c2c([H])nc3c(c2[H])c(-c2c([H])c([H])c([H])c(O[H])c2[H])c([H])n3[H])c(O[H])c1[H]


 28 31  0  0  0  0  0  0  0  0999 V2000
  -84.0630   29.7306    1.2935 C   0  0  0  0  0  0  0  0  0  0  0  0
  -83.0043   29.2459    2.0329 C   0  0  0  0  0  0  0  0  0  0  0  0
  -83.3203   28.0193    2.5429 N   0  0  0  0  0  0  0  0  0  0  0  0
  -84.5640   27.6995    2.1483 C   0  0  0  0  0  0  0  0  0  0  0  0
  -85.3278   26.6205    2.3770 N   0  0  0  0  0  0  0  0  0  0  0  0
  -86.5594   26.5672    1.8469 C   0  0  0  0  0  0  0  0  0  0  0  0
  -87.0769   27.5964    1.0636 C   0  0  0  0  0  0  0  0  0  0  0  0
  -86.2988   28.7084    0.8236 C   0  0  0  0  0  0  0  0  0  0  0  0
  -85.0348   28.7519    1.3737 C   0  0  0  0  0  0  0  0  0  0  0  0
  -82.6902   27.4216    3.1476 H   0  0  0  0  0  0  0  0  0  0  0  0
  -88.4090   27.5317    0.4910 C   0  0  0  0  0  0  0  0  0  0  0  0
  -89.4541   28.1837    1.1111 C   0  0  0  0  0  0  0  0  0  0  0  0
  -90.7474   28.1362    0.5824 C   0  0  0  0  0  0  0  0  0  0  0  0
  -90.9872   27.4396   -0.5595 C   0  0  0  0  0  0  0  0  0  0  0  0
  -92.2735   27.3748   -1.1121 O   0  0  0  0  0  0  0  0  0  0  0  0
  -89.9568   26.7854   -1.1881 C   0  0  0  0  0  0  0  0  0  0  0  0
  -88.6643   26.8283   -0.6667 C   0  0  0  0  0  0  0  0  0  0  0  0
  -87.6642   26.1487   -1.3453 O   0  0  0  0  0  0  0  0  0  0  0  0
  -93.0561   27.8429   -0.6782 H   0  0  0  0  0  0  0  0  0  0  0  0
  -87.8410   25.6391   -2.1808 H   0  0  0  0  0  0  0  0  0  0  0  0
  -86.7304   33.3195   -0.6383 O   0  0  0  0  0  0  0  0  0  0  0  0
  -85.4896   32.7608   -0.3622 C   0  0  0  0  0  0  0  0  0  0  0  0
  -84.3779   33.4506   -0.7831 C   0  0  0  0  0  0  0  0  0  0  0  0
  -83.1398   32.9127   -0.5186 C   0  0  0  0  0  0  0  0  0  0  0  0
  -83.0145   31.6964    0.1604 C   0  0  0  0  0  0  0  0  0  0  0  0
  -84.1263   31.0004    0.5848 C   0  0  0  0  0  0  0  0  0  0  0  0
  -85.3644   31.5610    0.3075 C   0  0  0  0  0  0  0  0  0  0  0  0
  -87.2061   33.9553   -0.0162 H   0  0  0  0  0  0  0  0  0  0  0  0
 21 22  1  0  0  0
 22 23  2  0  0  0
 23 24  1  0  0  0
 24 25  2  0  0  0
 25 26  1  0  0  0
 26 27  2  0  0  0
 26  1  1  0  0  0
  1  2  2  0  0  0
  2  3  1  0  0  0
  3  4  1  0  0  0
  4  5  2  0  0  0
  5  6  1  0  0  0
  6  7  2  0  0  0
  7  8  1  0  0  0
  8  9  2  0  0  0
  7 11  1  0  0  0
 11 12  2  0  0  0
 12 13  1  0  0  0
 13 14  2  0  0  0
 14 15  1  0  0  0
 14 16  1  0  0  0
 16 17  2  0  0  0
 17 18  1  0  0  0
 27 22  1  0  0  0
  9  1  1  0  0  0
 17 11  1  0  0  0
  9  4  1  0  0  0
 21 28  1  0  0  0
  3 10  1  0  0  0
 15 19  1  0  0  0
 18 20  1  0  0  0
M  END
> <minimizedAffinity>
-10.04044

> <CNNscore>
0.3754505217

> <CNNaffinity>
6.1511549950

> <CNN_VS>
2.3094544411

> <CNNaffinity_variance>
0.0493692346

$$$$
[H]Oc1c([H])c([H])c(-c2c([H])nc3c(c2[H])c(-c2c([H])c([H])c([H])c(O[H])c2[H])c([H])n3[H])c(O[H])c1[H]


 28 31  0  0  0  0  0  0  0  0999 V2000
  -85.3496   32.3486   -0.4560 C   0  0  0  0  0  0  0  0  0  0  0  0
  -84.1419   32.9487   -0.1670 C   0  0  0  0  0  0  0  0  0  0  0  0
  -83.3828   32.1127    0.6008 N   0  0  0  0  0  0  0  0  0  0  0  0
  -84.0756   30.9819    0.8151 C   0  0  0  0  0  0  0  0  0  0  0  0
  -83.7803   29.8648    1.4970 N   0  0  0  0  0  0  0  0  0  0  0  0
  -84.6811   28.8715    1.5461 C   0  0  0  0  0  0  0  0  0  0  0  0
  -85.9183   28.9578    0.9117 C   0  0  0  0  0  0  0  0  0  0  0  0
  -86.2297   30.1018    0.2088 C   0  0  0  0  0  0  0  0  0  0  0  0
  -85.2959   31.1159    0.1654 C   0  0  0  0  0  0  0  0  0  0  0  0
  -82.4115   32.3218    0.9653 H   0  0  0  0  0  0  0  0  0  0  0  0
  -86.8875   27.8789    0.9665 C   0  0  0  0  0  0  0  0  0  0  0  0
  -87.3275   27.4140    2.1880 C   0  0  0  0  0  0  0  0  0  0  0  0
  -88.2589   26.3747    2.2699 C   0  0  0  0  0  0  0  0  0  0  0  0
  -88.7434   25.8083    1.1335 C   0  0  0  0  0  0  0  0  0  0  0  0
  -89.6777   24.7651    1.1854 O   0  0  0  0  0  0  0  0  0  0  0  0
  -88.3148   26.2605   -0.0899 C   0  0  0  0  0  0  0  0  0  0  0  0
  -87.3860   27.2967   -0.1793 C   0  0  0  0  0  0  0  0  0  0  0  0
  -86.9907   27.7113   -1.4420 O   0  0  0  0  0  0  0  0  0  0  0  0
  -90.0162   24.4061    2.0665 H   0  0  0  0  0  0  0  0  0  0  0  0
  -87.3460   27.2960   -2.2729 H   0  0  0  0  0  0  0  0  0  0  0  0
  -86.8192   34.9148   -4.3267 O   0  0  0  0  0  0  0  0  0  0  0  0
  -87.1215   34.1873   -3.1834 C   0  0  0  0  0  0  0  0  0  0  0  0
  -88.4494   34.0359   -2.8631 C   0  0  0  0  0  0  0  0  0  0  0  0
  -88.7686   33.3182   -1.7339 C   0  0  0  0  0  0  0  0  0  0  0  0
  -87.7692   32.7569   -0.9324 C   0  0  0  0  0  0  0  0  0  0  0  0
  -86.4357   32.9057   -1.2491 C   0  0  0  0  0  0  0  0  0  0  0  0
  -86.1368   33.6330   -2.3917 C   0  0  0  0  0  0  0  0  0  0  0  0
  -86.7277   34.5014   -5.2423 H   0  0  0  0  0  0  0  0  0  0  0  0
 21 22  1  0  0  0
 22 23  2  0  0  0
 23 24  1  0  0  0
 24 25  2  0  0  0
 25 26  1  0  0  0
 26 27  2  0  0  0
 26  1  1  0  0  0
  1  2  2  0  0  0
  2  3  1  0  0  0
  3  4  1  0  0  0
  4  5  2  0  0  0
  5  6  1  0  0  0
  6  7  2  0  0  0
  7  8  1  0  0  0
  8  9  2  0  0  0
  7 11  1  0  0  0
 11 12  2  0  0  0
 12 13  1  0  0  0
 13 14  2  0  0  0
 14 15  1  0  0  0
 14 16  1  0  0  0
 16 17  2  0  0  0
 17 18  1  0  0  0
 27 22  1  0  0  0
  9  1  1  0  0  0
 17 11  1  0  0  0
  9  4  1  0  0  0
 21 28  1  0  0  0
  3 10  1  0  0  0
 15 19  1  0  0  0
 18 20  1  0  0  0
M  END
> <minimizedAffinity>
-9.39359

> <CNNscore>
0.3628509641

> <CNNaffinity>
6.0440139771

> <CNN_VS>
2.1930763721

> <CNNaffinity_variance>
0.0986956209

$$$$
[H]Oc1c([H])c([H])c(-c2c([H])nc3c(c2[H])c(-c2c([H])c([H])c([H])c(O[H])c2[H])c([H])n3[H])c(O[H])c1[H]


 28 31  0  0  0  0  0  0  0  0999 V2000
  -84.9765   31.3915    0.3569 C   0  0  0  0  0  0  0  0  0  0  0  0
  -84.3944   32.6172    0.1090 C   0  0  0  0  0  0  0  0  0  0  0  0
  -85.2731   33.4185   -0.5620 N   0  0  0  0  0  0  0  0  0  0  0  0
  -86.4139   32.7356   -0.7540 C   0  0  0  0  0  0  0  0  0  0  0  0
  -87.5681   33.0677   -1.3520 N   0  0  0  0  0  0  0  0  0  0  0  0
  -88.5621   32.1675   -1.4000 C   0  0  0  0  0  0  0  0  0  0  0  0
  -88.4392   30.8941   -0.8487 C   0  0  0  0  0  0  0  0  0  0  0  0
  -87.2570   30.5448   -0.2323 C   0  0  0  0  0  0  0  0  0  0  0  0
  -86.2426   31.4783   -0.1892 C   0  0  0  0  0  0  0  0  0  0  0  0
  -85.0856   34.4111   -0.8774 H   0  0  0  0  0  0  0  0  0  0  0  0
  -89.5190   29.9257   -0.9017 C   0  0  0  0  0  0  0  0  0  0  0  0
  -90.3689   29.7871    0.1754 C   0  0  0  0  0  0  0  0  0  0  0  0
  -91.4158   28.8609    0.1519 C   0  0  0  0  0  0  0  0  0  0  0  0
  -91.6060   28.0813   -0.9449 C   0  0  0  0  0  0  0  0  0  0  0  0
  -92.6471   27.1445   -0.9962 O   0  0  0  0  0  0  0  0  0  0  0  0
  -90.7679   28.2079   -2.0249 C   0  0  0  0  0  0  0  0  0  0  0  0
  -89.7217   29.1296   -2.0086 C   0  0  0  0  0  0  0  0  0  0  0  0
  -88.9083   29.2129   -3.1284 O   0  0  0  0  0  0  0  0  0  0  0  0
  -93.2834   27.0230   -0.2215 H   0  0  0  0  0  0  0  0  0  0  0  0
  -89.0484   28.6418   -3.9305 H   0  0  0  0  0  0  0  0  0  0  0  0
  -85.4240   26.9402    2.2837 O   0  0  0  0  0  0  0  0  0  0  0  0
  -84.6415   28.0500    1.9943 C   0  0  0  0  0  0  0  0  0  0  0  0
  -83.3248   28.0147    2.3865 C   0  0  0  0  0  0  0  0  0  0  0  0
  -82.5337   29.1052    2.1085 C   0  0  0  0  0  0  0  0  0  0  0  0
  -83.0545   30.2206    1.4444 C   0  0  0  0  0  0  0  0  0  0  0  0
  -84.3746   30.2611    1.0488 C   0  0  0  0  0  0  0  0  0  0  0  0
  -85.1538   29.1510    1.3394 C   0  0  0  0  0  0  0  0  0  0  0  0
  -85.5271   26.1533    1.6610 H   0  0  0  0  0  0  0  0  0  0  0  0
 21 22  1  0  0  0
 22 23  2  0  0  0
 23 24  1  0  0  0
 24 25  2  0  0  0
 25 26  1  0  0  0
 26 27  2  0  0  0
 26  1  1  0  0  0
  1  2  2  0  0  0
  2  3  1  0  0  0
  3  4  1  0  0  0
  4  5  2  0  0  0
  5  6  1  0  0  0
  6  7  2  0  0  0
  7  8  1  0  0  0
  8  9  2  0  0  0
  7 11  1  0  0  0
 11 12  2  0  0  0
 12 13  1  0  0  0
 13 14  2  0  0  0
 14 15  1  0  0  0
 14 16  1  0  0  0
 16 17  2  0  0  0
 17 18  1  0  0  0
 27 22  1  0  0  0
  9  1  1  0  0  0
 17 11  1  0  0  0
  9  4  1  0  0  0
 21 28  1  0  0  0
  3 10  1  0  0  0
 15 19  1  0  0  0
 18 20  1  0  0  0
M  END
> <minimizedAffinity>
-10.08819

> <CNNscore>
0.2922214568

> <CNNaffinity>
6.0275545120

> <CNN_VS>
1.7613807917

> <CNNaffinity_variance>
0.1796221584

$$$$
[H]c1nc(N([H])c2c(OC([H])([H])[H])nc(N3C([H])([H])C([H])([H])C([H])(N4C([H])([H])C([H])([H])N(C([H])([H])[H])C([H])([H])C4([H])[H])C([H])([H])C3([H])[H])c([H])c2[H])nc(N([H])[H])c1Cl


 33 36  0  0  0  0  0  0  0  0999 V2000
  -88.4032   32.4261   -2.6150 C   0  0  0  0  0  0  0  0  0  0  0  0
  -89.5402   32.0271   -3.1383 N   0  0  0  0  0  0  0  0  0  0  0  0
  -90.4680   31.3275   -2.4570 C   0  0  0  0  0  0  0  0  0  0  0  0
  -90.1957   31.0251   -1.1512 C   0  0  0  0  0  0  0  0  0  0  0  0
  -88.9918   31.4252   -0.5303 C   0  0  0  0  0  0  0  0  0  0  0  0
  -88.0910   32.1289   -1.2650 C   0  0  0  0  0  0  0  0  0  0  0  0
  -91.6849   30.9180   -3.0442 N   0  0  0  0  0  0  0  0  0  0  0  0
  -92.0912   31.1786   -4.4003 C   0  0  0  0  0  0  0  0  0  0  0  0
  -92.2058   29.8664   -5.1927 C   0  0  0  0  0  0  0  0  0  0  0  0
  -92.3757   28.7876   -4.1508 C   0  0  0  0  0  0  0  0  0  0  0  0
  -93.3950   29.2884   -3.1338 C   0  0  0  0  0  0  0  0  0  0  0  0
  -92.5853   30.1457   -2.1496 C   0  0  0  0  0  0  0  0  0  0  0  0
  -92.8282   27.5454   -4.6819 N   0  0  0  0  0  0  0  0  0  0  0  0
  -93.6231   27.8195   -5.8649 C   0  0  0  0  0  0  0  0  0  0  0  0
  -95.0190   27.2473   -5.7432 C   0  0  0  0  0  0  0  0  0  0  0  0
  -94.9659   25.8194   -5.5180 N   0  0  0  0  0  0  0  0  0  0  0  0
  -94.7431   25.1769   -6.7919 C   0  0  0  0  0  0  0  0  0  0  0  0
  -93.9933   25.4753   -4.5224 C   0  0  0  0  0  0  0  0  0  0  0  0
  -93.5281   26.7173   -3.7505 C   0  0  0  0  0  0  0  0  0  0  0  0
  -87.9174   33.9158   -4.4377 C   0  0  0  0  0  0  0  0  0  0  0  0
  -87.4762   33.1414   -3.3443 O   0  0  0  0  0  0  0  0  0  0  0  0
  -86.8624   32.5774   -0.7513 N   0  0  0  0  0  0  0  0  0  0  0  0
  -86.6536   33.6380   -0.8365 H   0  0  0  0  0  0  0  0  0  0  0  0
  -85.8767   31.7933   -0.1387 C   0  0  0  0  0  0  0  0  0  0  0  0
  -86.0030   30.5966    0.4106 N   0  0  0  0  0  0  0  0  0  0  0  0
  -85.0379   29.8726    0.9894 C   0  0  0  0  0  0  0  0  0  0  0  0
  -83.7563   30.3843    1.0453 C   0  0  0  0  0  0  0  0  0  0  0  0
  -82.4618   29.4817    1.7885 Cl  0  0  0  0  0  0  0  0  0  0  0  0
  -83.5770   31.6330    0.4834 C   0  0  0  0  0  0  0  0  0  0  0  0
  -82.2546   32.1573    0.5429 N   0  0  0  0  0  0  0  0  0  0  0  0
  -84.5868   32.3013   -0.0791 N   0  0  0  0  0  0  0  0  0  0  0  0
  -82.1202   33.1541    0.7779 H   0  0  0  0  0  0  0  0  0  0  0  0
  -81.4561   31.5403    0.3523 H   0  0  0  0  0  0  0  0  0  0  0  0
 20 21  1  0  0  0
 21  1  1  0  0  0
  1  2  2  0  0  0
  2  3  1  0  0  0
  3  4  2  0  0  0
  4  5  1  0  0  0
  5  6  2  0  0  0
  6 22  1  0  0  0
 22 24  1  0  0  0
 24 25  2  0  0  0
 25 26  1  0  0  0
 26 27  2  0  0  0
 27 28  1  0  0  0
 27 29  1  0  0  0
 29 30  1  0  0  0
 29 31  2  0  0  0
  3  7  1  0  0  0
  7  8  1  0  0  0
  8  9  1  0  0  0
  9 10  1  0  0  0
 10 11  1  0  0  0
 11 12  1  0  0  0
 10 13  1  0  0  0
 13 14  1  0  0  0
 14 15  1  0  0  0
 15 16  1  0  0  0
 16 17  1  0  0  0
 16 18  1  0  0  0
 18 19  1  0  0  0
  6  1  1  0  0  0
 31 24  1  0  0  0
 12  7  1  0  0  0
 19 13  1  0  0  0
 22 23  1  0  0  0
 30 32  1  0  0  0
 30 33  1  0  0  0
M  END
> <minimizedAffinity>
-7.28423

> <CNNscore>
0.3922146857

> <CNNaffinity>
6.3019866943

> <CNN_VS>
2.4717316628

> <CNNaffinity_variance>
0.0517703481

$$$$
[H]c1nc(N([H])c2c(OC([H])([H])[H])nc(N3C([H])([H])C([H])([H])C([H])(N4C([H])([H])C([H])([H])N(C([H])([H])[H])C([H])([H])C4([H])[H])C([H])([H])C3([H])[H])c([H])c2[H])nc(N([H])[H])c1Cl


 33 36  0  0  0  0  0  0  0  0999 V2000
  -88.9488   26.8040    1.6273 C   0  0  0  0  0  0  0  0  0  0  0  0
  -90.0050   26.6465    0.8621 N   0  0  0  0  0  0  0  0  0  0  0  0
  -89.9524   26.1346   -0.3827 C   0  0  0  0  0  0  0  0  0  0  0  0
  -88.7253   25.7638   -0.8601 C   0  0  0  0  0  0  0  0  0  0  0  0
  -87.5519   25.9075   -0.0870 C   0  0  0  0  0  0  0  0  0  0  0  0
  -87.6635   26.4299    1.1623 C   0  0  0  0  0  0  0  0  0  0  0  0
  -91.1060   25.9705   -1.1798 N   0  0  0  0  0  0  0  0  0  0  0  0
  -92.3998   26.5410   -0.9100 C   0  0  0  0  0  0  0  0  0  0  0  0
  -92.7815   27.5561   -1.9995 C   0  0  0  0  0  0  0  0  0  0  0  0
  -91.9355   27.1915   -3.1951 C   0  0  0  0  0  0  0  0  0  0  0  0
  -91.9913   25.6762   -3.3519 C   0  0  0  0  0  0  0  0  0  0  0  0
  -90.9160   25.1385   -2.3960 C   0  0  0  0  0  0  0  0  0  0  0  0
  -92.3709   27.7959   -4.4097 N   0  0  0  0  0  0  0  0  0  0  0  0
  -93.4753   28.6864   -4.1038 C   0  0  0  0  0  0  0  0  0  0  0  0
  -94.7168   28.3250   -4.8906 C   0  0  0  0  0  0  0  0  0  0  0  0
  -94.4474   28.3611   -6.3114 N   0  0  0  0  0  0  0  0  0  0  0  0
  -94.4988   29.7396   -6.7382 C   0  0  0  0  0  0  0  0  0  0  0  0
  -93.2143   27.7047   -6.6342 C   0  0  0  0  0  0  0  0  0  0  0  0
  -92.7031   26.8735   -5.4498 C   0  0  0  0  0  0  0  0  0  0  0  0
  -90.2313   27.1424    3.6318 C   0  0  0  0  0  0  0  0  0  0  0  0
  -89.0415   27.3322    2.8982 O   0  0  0  0  0  0  0  0  0  0  0  0
  -86.5649   26.6181    2.0180 N   0  0  0  0  0  0  0  0  0  0  0  0
  -86.4700   25.9313    2.8518 H   0  0  0  0  0  0  0  0  0  0  0  0
  -85.5767   27.6042    1.9047 C   0  0  0  0  0  0  0  0  0  0  0  0
  -84.3811   27.6375    2.4695 N   0  0  0  0  0  0  0  0  0  0  0  0
  -83.4580   28.5976    2.3402 C   0  0  0  0  0  0  0  0  0  0  0  0
  -83.7339   29.6914    1.5433 C   0  0  0  0  0  0  0  0  0  0  0  0
  -82.5657   30.9708    1.3407 Cl  0  0  0  0  0  0  0  0  0  0  0  0
  -84.9724   29.6996    0.9324 C   0  0  0  0  0  0  0  0  0  0  0  0
  -85.2533   30.8288    0.1119 N   0  0  0  0  0  0  0  0  0  0  0  0
  -85.8473   28.7059    1.1057 N   0  0  0  0  0  0  0  0  0  0  0  0
  -86.1905   31.2608    0.1568 H   0  0  0  0  0  0  0  0  0  0  0  0
  -84.5238   31.1966   -0.5104 H   0  0  0  0  0  0  0  0  0  0  0  0
 20 21  1  0  0  0
 21  1  1  0  0  0
  1  2  2  0  0  0
  2  3  1  0  0  0
  3  4  2  0  0  0
  4  5  1  0  0  0
  5  6  2  0  0  0
  6 22  1  0  0  0
 22 24  1  0  0  0
 24 25  2  0  0  0
 25 26  1  0  0  0
 26 27  2  0  0  0
 27 28  1  0  0  0
 27 29  1  0  0  0
 29 30  1  0  0  0
 29 31  2  0  0  0
  3  7  1  0  0  0
  7  8  1  0  0  0
  8  9  1  0  0  0
  9 10  1  0  0  0
 10 11  1  0  0  0
 11 12  1  0  0  0
 10 13  1  0  0  0
 13 14  1  0  0  0
 14 15  1  0  0  0
 15 16  1  0  0  0
 16 17  1  0  0  0
 16 18  1  0  0  0
 18 19  1  0  0  0
  6  1  1  0  0  0
 31 24  1  0  0  0
 12  7  1  0  0  0
 19 13  1  0  0  0
 22 23  1  0  0  0
 30 32  1  0  0  0
 30 33  1  0  0  0
M  END
> <minimizedAffinity>
-7.35442

> <CNNscore>
0.1726773530

> <CNNaffinity>
6.2462568283

> <CNN_VS>
1.0785870552

> <CNNaffinity_variance>
0.0513753891

$$$$
[H]c1nc(N([H])c2c(OC([H])([H])[H])nc(N3C([H])([H])C([H])([H])C([H])(N4C([H])([H])C([H])([H])N(C([H])([H])[H])C([H])([H])C4([H])[H])C([H])([H])C3([H])[H])c([H])c2[H])nc(N([H])[H])c1Cl


 33 36  0  0  0  0  0  0  0  0999 V2000
  -88.7901   31.2671   -2.4976 C   0  0  0  0  0  0  0  0  0  0  0  0
  -89.8691   30.7176   -3.0072 N   0  0  0  0  0  0  0  0  0  0  0  0
  -90.7955   30.0744   -2.2707 C   0  0  0  0  0  0  0  0  0  0  0  0
  -90.5860   29.9990   -0.9211 C   0  0  0  0  0  0  0  0  0  0  0  0
  -89.4463   30.5693   -0.3121 C   0  0  0  0  0  0  0  0  0  0  0  0
  -88.5439   31.2064   -1.1034 C   0  0  0  0  0  0  0  0  0  0  0  0
  -91.9495   29.4993   -2.8456 N   0  0  0  0  0  0  0  0  0  0  0  0
  -92.0947   29.1097   -4.2237 C   0  0  0  0  0  0  0  0  0  0  0  0
  -92.2673   27.5866   -4.3402 C   0  0  0  0  0  0  0  0  0  0  0  0
  -92.7514   27.1375   -2.9830 C   0  0  0  0  0  0  0  0  0  0  0  0
  -93.8375   28.1103   -2.5381 C   0  0  0  0  0  0  0  0  0  0  0  0
  -93.0807   29.2878   -1.9057 C   0  0  0  0  0  0  0  0  0  0  0  0
  -93.2857   25.8166   -2.9744 N   0  0  0  0  0  0  0  0  0  0  0  0
  -92.5253   25.0251   -2.0249 C   0  0  0  0  0  0  0  0  0  0  0  0
  -91.9130   23.8058   -2.6799 C   0  0  0  0  0  0  0  0  0  0  0  0
  -92.9386   22.9825   -3.2822 N   0  0  0  0  0  0  0  0  0  0  0  0
  -93.5474   22.1953   -2.2358 C   0  0  0  0  0  0  0  0  0  0  0  0
  -93.8762   23.7668   -4.0314 C   0  0  0  0  0  0  0  0  0  0  0  0
  -93.3507   25.1906   -4.2578 C   0  0  0  0  0  0  0  0  0  0  0  0
  -87.8542   31.6752   -4.6736 C   0  0  0  0  0  0  0  0  0  0  0  0
  -87.8626   31.9182   -3.2841 O   0  0  0  0  0  0  0  0  0  0  0  0
  -87.3759   31.8091   -0.6065 N   0  0  0  0  0  0  0  0  0  0  0  0
  -87.3098   32.8885   -0.6858 H   0  0  0  0  0  0  0  0  0  0  0  0
  -86.2849   31.1575   -0.0176 C   0  0  0  0  0  0  0  0  0  0  0  0
  -86.1911   29.8946    0.3646 N   0  0  0  0  0  0  0  0  0  0  0  0
  -85.1308   29.3019    0.9258 C   0  0  0  0  0  0  0  0  0  0  0  0
  -83.9880   30.0438    1.1516 C   0  0  0  0  0  0  0  0  0  0  0  0
  -82.5781   29.3199    1.8803 Cl  0  0  0  0  0  0  0  0  0  0  0  0
  -84.0400   31.3694    0.7679 C   0  0  0  0  0  0  0  0  0  0  0  0
  -82.8602   32.1311    1.0023 N   0  0  0  0  0  0  0  0  0  0  0  0
  -85.1334   31.8970    0.2120 N   0  0  0  0  0  0  0  0  0  0  0  0
  -82.9483   33.0920    1.3710 H   0  0  0  0  0  0  0  0  0  0  0  0
  -81.9419   31.7169    0.8025 H   0  0  0  0  0  0  0  0  0  0  0  0
 20 21  1  0  0  0
 21  1  1  0  0  0
  1  2  2  0  0  0
  2  3  1  0  0  0
  3  4  2  0  0  0
  4  5  1  0  0  0
  5  6  2  0  0  0
  6 22  1  0  0  0
 22 24  1  0  0  0
 24 25  2  0  0  0
 25 26  1  0  0  0
 26 27  2  0  0  0
 27 28  1  0  0  0
 27 29  1  0  0  0
 29 30  1  0  0  0
 29 31  2  0  0  0
  3  7  1  0  0  0
  7  8  1  0  0  0
  8  9  1  0  0  0
  9 10  1  0  0  0
 10 11  1  0  0  0
 11 12  1  0  0  0
 10 13  1  0  0  0
 13 14  1  0  0  0
 14 15  1  0  0  0
 15 16  1  0  0  0
 16 17  1  0  0  0
 16 18  1  0  0  0
 18 19  1  0  0  0
  6  1  1  0  0  0
 31 24  1  0  0  0
 12  7  1  0  0  0
 19 13  1  0  0  0
 22 23  1  0  0  0
 30 32  1  0  0  0
 30 33  1  0  0  0
M  END
> <minimizedAffinity>
-7.27405

> <CNNscore>
0.1188772321

> <CNNaffinity>
5.8569917679

> <CNN_VS>
0.6962629557

> <CNNaffinity_variance>
0.1593329608

$$$$
[H]c1nc(N([H])c2c(OC([H])([H])[H])nc(N3C([H])([H])C([H])([H])C([H])(N4C([H])([H])C([H])([H])N(C([H])([H])[H])C([H])([H])C4([H])[H])C([H])([H])C3([H])[H])c([H])c2[H])nc(N([H])[H])c1Cl


 33 36  0  0  0  0  0  0  0  0999 V2000
  -86.0940   33.2503   -1.8601 C   0  0  0  0  0  0  0  0  0  0  0  0
  -86.6217   34.1072   -2.7046 N   0  0  0  0  0  0  0  0  0  0  0  0
  -87.9482   34.2988   -2.8388 C   0  0  0  0  0  0  0  0  0  0  0  0
  -88.7759   33.5532   -2.0452 C   0  0  0  0  0  0  0  0  0  0  0  0
  -88.2710   32.6154   -1.1175 C   0  0  0  0  0  0  0  0  0  0  0  0
  -86.9241   32.4628   -1.0241 C   0  0  0  0  0  0  0  0  0  0  0  0
  -88.4866   35.2326   -3.7506 N   0  0  0  0  0  0  0  0  0  0  0  0
  -87.9018   35.6062   -5.0118 C   0  0  0  0  0  0  0  0  0  0  0  0
  -88.8047   35.1708   -6.1772 C   0  0  0  0  0  0  0  0  0  0  0  0
  -90.1787   35.0066   -5.5743 C   0  0  0  0  0  0  0  0  0  0  0  0
  -90.4312   36.2101   -4.6733 C   0  0  0  0  0  0  0  0  0  0  0  0
  -89.7732   35.8477   -3.3336 C   0  0  0  0  0  0  0  0  0  0  0  0
  -91.2222   34.9292   -6.5414 N   0  0  0  0  0  0  0  0  0  0  0  0
  -92.3597   34.2666   -5.9303 C   0  0  0  0  0  0  0  0  0  0  0  0
  -92.7717   33.0356   -6.7086 C   0  0  0  0  0  0  0  0  0  0  0  0
  -93.0923   33.3816   -8.0760 N   0  0  0  0  0  0  0  0  0  0  0  0
  -94.4315   33.9217   -8.0951 C   0  0  0  0  0  0  0  0  0  0  0  0
  -92.1107   34.2578   -8.6456 C   0  0  0  0  0  0  0  0  0  0  0  0
  -90.8476   34.3137   -7.7759 C   0  0  0  0  0  0  0  0  0  0  0  0
  -84.0637   33.6106   -0.6250 C   0  0  0  0  0  0  0  0  0  0  0  0
  -84.7294   33.0812   -1.7503 O   0  0  0  0  0  0  0  0  0  0  0  0
  -86.3121   31.5606   -0.1375 N   0  0  0  0  0  0  0  0  0  0  0  0
  -85.5257   31.9542    0.4968 H   0  0  0  0  0  0  0  0  0  0  0  0
  -86.6141   30.2010    0.0117 C   0  0  0  0  0  0  0  0  0  0  0  0
  -86.5572   29.4626    1.1078 N   0  0  0  0  0  0  0  0  0  0  0  0
  -86.8533   28.1622    1.2165 C   0  0  0  0  0  0  0  0  0  0  0  0
  -87.2672   27.4716    0.0943 C   0  0  0  0  0  0  0  0  0  0  0  0
  -87.6654   25.7756    0.1812 Cl  0  0  0  0  0  0  0  0  0  0  0  0
  -87.3417   28.2031   -1.0746 C   0  0  0  0  0  0  0  0  0  0  0  0
  -87.7687   27.4879   -2.2293 N   0  0  0  0  0  0  0  0  0  0  0  0
  -87.0306   29.5011   -1.1117 N   0  0  0  0  0  0  0  0  0  0  0  0
  -87.2881   27.6540   -3.1285 H   0  0  0  0  0  0  0  0  0  0  0  0
  -88.5448   26.8198   -2.1530 H   0  0  0  0  0  0  0  0  0  0  0  0
 20 21  1  0  0  0
 21  1  1  0  0  0
  1  2  2  0  0  0
  2  3  1  0  0  0
  3  4  2  0  0  0
  4  5  1  0  0  0
  5  6  2  0  0  0
  6 22  1  0  0  0
 22 24  1  0  0  0
 24 25  2  0  0  0
 25 26  1  0  0  0
 26 27  2  0  0  0
 27 28  1  0  0  0
 27 29  1  0  0  0
 29 30  1  0  0  0
 29 31  2  0  0  0
  3  7  1  0  0  0
  7  8  1  0  0  0
  8  9  1  0  0  0
  9 10  1  0  0  0
 10 11  1  0  0  0
 11 12  1  0  0  0
 10 13  1  0  0  0
 13 14  1  0  0  0
 14 15  1  0  0  0
 15 16  1  0  0  0
 16 17  1  0  0  0
 16 18  1  0  0  0
 18 19  1  0  0  0
  6  1  1  0  0  0
 31 24  1  0  0  0
 12  7  1  0  0  0
 19 13  1  0  0  0
 22 23  1  0  0  0
 30 32  1  0  0  0
 30 33  1  0  0  0
M  END
> <minimizedAffinity>
-6.80311

> <CNNscore>
0.1111771390

> <CNNaffinity>
5.7304663658

> <CNN_VS>
0.6370968819

> <CNNaffinity_variance>
0.3904517293

$$$$
[H]c1nc(N([H])c2c(OC([H])([H])[H])nc(N3C([H])([H])C([H])([H])C([H])(N4C([H])([H])C([H])([H])N(C([H])([H])[H])C([H])([H])C4([H])[H])C([H])([H])C3([H])[H])c([H])c2[H])nc(N([H])[H])c1Cl


 33 36  0  0  0  0  0  0  0  0999 V2000
  -89.1776   30.3386   -2.7684 C   0  0  0  0  0  0  0  0  0  0  0  0
  -89.9850   29.3620   -3.1150 N   0  0  0  0  0  0  0  0  0  0  0  0
  -90.8460   28.7709   -2.2643 C   0  0  0  0  0  0  0  0  0  0  0  0
  -90.8680   29.2244   -0.9740 C   0  0  0  0  0  0  0  0  0  0  0  0
  -90.0252   30.2710   -0.5389 C   0  0  0  0  0  0  0  0  0  0  0  0
  -89.1760   30.8310   -1.4396 C   0  0  0  0  0  0  0  0  0  0  0  0
  -91.7074   27.7275   -2.6673 N   0  0  0  0  0  0  0  0  0  0  0  0
  -91.3016   26.5087   -3.3170 C   0  0  0  0  0  0  0  0  0  0  0  0
  -91.5804   25.2957   -2.4147 C   0  0  0  0  0  0  0  0  0  0  0  0
  -92.6387   25.7590   -1.4433 C   0  0  0  0  0  0  0  0  0  0  0  0
  -93.6932   26.5178   -2.2410 C   0  0  0  0  0  0  0  0  0  0  0  0
  -93.1452   27.9474   -2.3639 C   0  0  0  0  0  0  0  0  0  0  0  0
  -93.2726   24.6957   -0.7379 N   0  0  0  0  0  0  0  0  0  0  0  0
  -92.9144   23.4457   -1.3824 C   0  0  0  0  0  0  0  0  0  0  0  0
  -94.1398   22.6780   -1.8294 C   0  0  0  0  0  0  0  0  0  0  0  0
  -95.0101   22.4093   -0.7055 N   0  0  0  0  0  0  0  0  0  0  0  0
  -94.4770   21.2718    0.0068 C   0  0  0  0  0  0  0  0  0  0  0  0
  -95.1888   23.5703    0.1164 C   0  0  0  0  0  0  0  0  0  0  0  0
  -94.6881   24.8345   -0.5950 C   0  0  0  0  0  0  0  0  0  0  0  0
  -88.8284   31.4913   -4.8485 C   0  0  0  0  0  0  0  0  0  0  0  0
  -88.3086   30.9200   -3.6681 O   0  0  0  0  0  0  0  0  0  0  0  0
  -88.2940   31.8766   -1.1180 N   0  0  0  0  0  0  0  0  0  0  0  0
  -88.6336   32.8853   -1.3251 H   0  0  0  0  0  0  0  0  0  0  0  0
  -87.0175   31.7498   -0.5556 C   0  0  0  0  0  0  0  0  0  0  0  0
  -86.5688   30.8095    0.2595 N   0  0  0  0  0  0  0  0  0  0  0  0
  -85.3397   30.7176    0.7804 C   0  0  0  0  0  0  0  0  0  0  0  0
  -84.4027   31.6819    0.4647 C   0  0  0  0  0  0  0  0  0  0  0  0
  -82.7863   31.6091    1.1166 Cl  0  0  0  0  0  0  0  0  0  0  0  0
  -84.8271   32.6847   -0.3844 C   0  0  0  0  0  0  0  0  0  0  0  0
  -83.8585   33.6770   -0.7075 N   0  0  0  0  0  0  0  0  0  0  0  0
  -86.0711   32.7151   -0.8685 N   0  0  0  0  0  0  0  0  0  0  0  0
  -84.1453   34.6691   -0.7312 H   0  0  0  0  0  0  0  0  0  0  0  0
  -82.8925   33.3943   -0.9116 H   0  0  0  0  0  0  0  0  0  0  0  0
 20 21  1  0  0  0
 21  1  1  0  0  0
  1  2  2  0  0  0
  2  3  1  0  0  0
  3  4  2  0  0  0
  4  5  1  0  0  0
  5  6  2  0  0  0
  6 22  1  0  0  0
 22 24  1  0  0  0
 24 25  2  0  0  0
 25 26  1  0  0  0
 26 27  2  0  0  0
 27 28  1  0  0  0
 27 29  1  0  0  0
 29 30  1  0  0  0
 29 31  2  0  0  0
  3  7  1  0  0  0
  7  8  1  0  0  0
  8  9  1  0  0  0
  9 10  1  0  0  0
 10 11  1  0  0  0
 11 12  1  0  0  0
 10 13  1  0  0  0
 13 14  1  0  0  0
 14 15  1  0  0  0
 15 16  1  0  0  0
 16 17  1  0  0  0
 16 18  1  0  0  0
 18 19  1  0  0  0
  6  1  1  0  0  0
 31 24  1  0  0  0
 12  7  1  0  0  0
 19 13  1  0  0  0
 22 23  1  0  0  0
 30 32  1  0  0  0
 30 33  1  0  0  0
M  END
> <minimizedAffinity>
-6.68916

> <CNNscore>
0.1106854975

> <CNNaffinity>
5.6975002289

> <CNN_VS>
0.6306306720

> <CNNaffinity_variance>
0.0903333798

$$$$
[H]c1nc(N([H])c2c(OC([H])([H])[H])nc(N3C([H])([H])C([H])([H])C([H])(N4C([H])([H])C([H])([H])N(C([H])([H])[H])C([H])([H])C4([H])[H])C([H])([H])C3([H])[H])c([H])c2[H])nc(N([H])[H])c1Cl


 33 36  0  0  0  0  0  0  0  0999 V2000
  -86.7425   32.8055   -1.4400 C   0  0  0  0  0  0  0  0  0  0  0  0
  -87.2654   31.8688   -0.6817 N   0  0  0  0  0  0  0  0  0  0  0  0
  -88.2059   31.0043   -1.1089 C   0  0  0  0  0  0  0  0  0  0  0  0
  -88.6276   31.1219   -2.4047 C   0  0  0  0  0  0  0  0  0  0  0  0
  -88.1047   32.1078   -3.2706 C   0  0  0  0  0  0  0  0  0  0  0  0
  -87.1579   32.9537   -2.7867 C   0  0  0  0  0  0  0  0  0  0  0  0
  -88.7448   30.0026   -0.2726 N   0  0  0  0  0  0  0  0  0  0  0  0
  -90.1079   29.9362    0.1853 C   0  0  0  0  0  0  0  0  0  0  0  0
  -90.8117   28.6958   -0.3883 C   0  0  0  0  0  0  0  0  0  0  0  0
  -89.6995   27.7471   -0.7641 C   0  0  0  0  0  0  0  0  0  0  0  0
  -88.7000   27.7329    0.3868 C   0  0  0  0  0  0  0  0  0  0  0  0
  -87.7871   28.9421    0.1345 C   0  0  0  0  0  0  0  0  0  0  0  0
  -90.1416   26.4144   -1.0057 N   0  0  0  0  0  0  0  0  0  0  0  0
  -91.3960   26.2172   -0.3029 C   0  0  0  0  0  0  0  0  0  0  0  0
  -91.3160   25.0565    0.6650 C   0  0  0  0  0  0  0  0  0  0  0  0
  -90.9552   23.8394   -0.0285 N   0  0  0  0  0  0  0  0  0  0  0  0
  -92.1455   23.3173   -0.6578 C   0  0  0  0  0  0  0  0  0  0  0  0
  -89.8684   24.0503   -0.9395 C   0  0  0  0  0  0  0  0  0  0  0  0
  -89.1863   25.4010   -0.6841 C   0  0  0  0  0  0  0  0  0  0  0  0
  -84.4849   33.1805   -0.7051 C   0  0  0  0  0  0  0  0  0  0  0  0
  -85.7803   33.6735   -0.9672 O   0  0  0  0  0  0  0  0  0  0  0  0
  -86.5690   33.9705   -3.5572 N   0  0  0  0  0  0  0  0  0  0  0  0
  -85.5341   33.8280   -3.8479 H   0  0  0  0  0  0  0  0  0  0  0  0
  -87.1828   35.1528   -3.9898 C   0  0  0  0  0  0  0  0  0  0  0  0
  -87.8041   36.0685   -3.2651 N   0  0  0  0  0  0  0  0  0  0  0  0
  -88.3816   37.1901   -3.7112 C   0  0  0  0  0  0  0  0  0  0  0  0
  -88.3536   37.4677   -5.0638 C   0  0  0  0  0  0  0  0  0  0  0  0
  -89.0913   38.9158   -5.6975 Cl  0  0  0  0  0  0  0  0  0  0  0  0
  -87.7145   36.5383   -5.8604 C   0  0  0  0  0  0  0  0  0  0  0  0
  -87.6878   36.8278   -7.2542 N   0  0  0  0  0  0  0  0  0  0  0  0
  -87.1584   35.4380   -5.3476 N   0  0  0  0  0  0  0  0  0  0  0  0
  -87.8598   36.0644   -7.9286 H   0  0  0  0  0  0  0  0  0  0  0  0
  -87.4988   37.7869   -7.5687 H   0  0  0  0  0  0  0  0  0  0  0  0
 20 21  1  0  0  0
 21  1  1  0  0  0
  1  2  2  0  0  0
  2  3  1  0  0  0
  3  4  2  0  0  0
  4  5  1  0  0  0
  5  6  2  0  0  0
  6 22  1  0  0  0
 22 24  1  0  0  0
 24 25  2  0  0  0
 25 26  1  0  0  0
 26 27  2  0  0  0
 27 28  1  0  0  0
 27 29  1  0  0  0
 29 30  1  0  0  0
 29 31  2  0  0  0
  3  7  1  0  0  0
  7  8  1  0  0  0
  8  9  1  0  0  0
  9 10  1  0  0  0
 10 11  1  0  0  0
 11 12  1  0  0  0
 10 13  1  0  0  0
 13 14  1  0  0  0
 14 15  1  0  0  0
 15 16  1  0  0  0
 16 17  1  0  0  0
 16 18  1  0  0  0
 18 19  1  0  0  0
  6  1  1  0  0  0
 31 24  1  0  0  0
 12  7  1  0  0  0
 19 13  1  0  0  0
 22 23  1  0  0  0
 30 32  1  0  0  0
 30 33  1  0  0  0
M  END
> <minimizedAffinity>
-7.05781

> <CNNscore>
0.0667978898

> <CNNaffinity>
5.7471618652

> <CNN_VS>
0.3838982880

> <CNNaffinity_variance>
0.1705622226

$$$$
[H]c1nc(N([H])c2c(OC([H])([H])[H])nc(N3C([H])([H])C([H])([H])C([H])(N4C([H])([H])C([H])([H])N(C([H])([H])[H])C([H])([H])C4([H])[H])C([H])([H])C3([H])[H])c([H])c2[H])nc(N([H])[H])c1Cl


 33 36  0  0  0  0  0  0  0  0999 V2000
  -89.0887   28.5526   -1.3080 C   0  0  0  0  0  0  0  0  0  0  0  0
  -88.4175   29.4125   -2.0400 N   0  0  0  0  0  0  0  0  0  0  0  0
  -88.5719   30.7475   -1.9489 C   0  0  0  0  0  0  0  0  0  0  0  0
  -89.4804   31.2160   -1.0400 C   0  0  0  0  0  0  0  0  0  0  0  0
  -90.2333   30.3435   -0.2233 C   0  0  0  0  0  0  0  0  0  0  0  0
  -90.0370   29.0057   -0.3575 C   0  0  0  0  0  0  0  0  0  0  0  0
  -87.8309   31.6482   -2.7444 N   0  0  0  0  0  0  0  0  0  0  0  0
  -87.7416   31.6206   -4.1809 C   0  0  0  0  0  0  0  0  0  0  0  0
  -88.3818   32.8798   -4.7872 C   0  0  0  0  0  0  0  0  0  0  0  0
  -88.3793   33.9005   -3.6753 C   0  0  0  0  0  0  0  0  0  0  0  0
  -87.0095   33.8491   -3.0082 C   0  0  0  0  0  0  0  0  0  0  0  0
  -87.1069   32.7036   -1.9897 C   0  0  0  0  0  0  0  0  0  0  0  0
  -88.6245   35.2317   -4.1202 N   0  0  0  0  0  0  0  0  0  0  0  0
  -88.3097   35.3032   -5.5351 C   0  0  0  0  0  0  0  0  0  0  0  0
  -87.2646   36.3601   -5.8208 C   0  0  0  0  0  0  0  0  0  0  0  0
  -87.7123   37.6562   -5.3601 N   0  0  0  0  0  0  0  0  0  0  0  0
  -88.6177   38.1908   -6.3500 C   0  0  0  0  0  0  0  0  0  0  0  0
  -88.2760   37.5856   -4.0437 C   0  0  0  0  0  0  0  0  0  0  0  0
  -87.9483   36.2451   -3.3725 C   0  0  0  0  0  0  0  0  0  0  0  0
  -87.7123   26.6172   -0.9376 C   0  0  0  0  0  0  0  0  0  0  0  0
  -88.9035   27.1911   -1.4292 O   0  0  0  0  0  0  0  0  0  0  0  0
  -90.7296   28.0470    0.4013 N   0  0  0  0  0  0  0  0  0  0  0  0
  -91.4995   27.4801   -0.1102 H   0  0  0  0  0  0  0  0  0  0  0  0
  -90.5274   27.7471    1.7544 C   0  0  0  0  0  0  0  0  0  0  0  0
  -90.9186   28.4338    2.8152 N   0  0  0  0  0  0  0  0  0  0  0  0
  -90.7083   28.1184    4.0985 C   0  0  0  0  0  0  0  0  0  0  0  0
  -90.0140   26.9635    4.4012 C   0  0  0  0  0  0  0  0  0  0  0  0
  -89.7126   26.5063    6.0574 Cl  0  0  0  0  0  0  0  0  0  0  0  0
  -89.5855   26.2137    3.3237 C   0  0  0  0  0  0  0  0  0  0  0  0
  -88.8701   25.0239    3.6396 N   0  0  0  0  0  0  0  0  0  0  0  0
  -89.8306   26.5882    2.0657 N   0  0  0  0  0  0  0  0  0  0  0  0
  -88.0318   24.7809    3.0872 H   0  0  0  0  0  0  0  0  0  0  0  0
  -89.1956   24.4263    4.4087 H   0  0  0  0  0  0  0  0  0  0  0  0
 20 21  1  0  0  0
 21  1  1  0  0  0
  1  2  2  0  0  0
  2  3  1  0  0  0
  3  4  2  0  0  0
  4  5  1  0  0  0
  5  6  2  0  0  0
  6 22  1  0  0  0
 22 24  1  0  0  0
 24 25  2  0  0  0
 25 26  1  0  0  0
 26 27  2  0  0  0
 27 28  1  0  0  0
 27 29  1  0  0  0
 29 30  1  0  0  0
 29 31  2  0  0  0
  3  7  1  0  0  0
  7  8  1  0  0  0
  8  9  1  0  0  0
  9 10  1  0  0  0
 10 11  1  0  0  0
 11 12  1  0  0  0
 10 13  1  0  0  0
 13 14  1  0  0  0
 14 15  1  0  0  0
 15 16  1  0  0  0
 16 17  1  0  0  0
 16 18  1  0  0  0
 18 19  1  0  0  0
  6  1  1  0  0  0
 31 24  1  0  0  0
 12  7  1  0  0  0
 19 13  1  0  0  0
 22 23  1  0  0  0
 30 32  1  0  0  0
 30 33  1  0  0  0
M  END
> <minimizedAffinity>
-7.51198

> <CNNscore>
0.0627772212

> <CNNaffinity>
5.5160202980

> <CNN_VS>
0.3462804258

> <CNNaffinity_variance>
0.4520681798

$$$$
[H]c1nc(N([H])c2c(OC([H])([H])[H])nc(N3C([H])([H])C([H])([H])C([H])(N4C([H])([H])C([H])([H])N(C([H])([H])[H])C([H])([H])C4([H])[H])C([H])([H])C3([H])[H])c([H])c2[H])nc(N([H])[H])c1Cl


 33 36  0  0  0  0  0  0  0  0999 V2000
  -88.9057   28.2333    0.5086 C   0  0  0  0  0  0  0  0  0  0  0  0
  -89.6230   27.4529   -0.2674 N   0  0  0  0  0  0  0  0  0  0  0  0
  -89.3299   26.1582   -0.4961 C   0  0  0  0  0  0  0  0  0  0  0  0
  -88.2225   25.6445    0.1210 C   0  0  0  0  0  0  0  0  0  0  0  0
  -87.4102   26.4314    0.9672 C   0  0  0  0  0  0  0  0  0  0  0  0
  -87.7528   27.7317    1.1623 C   0  0  0  0  0  0  0  0  0  0  0  0
  -90.1239   25.3414   -1.3301 N   0  0  0  0  0  0  0  0  0  0  0  0
  -89.6319   24.3244   -2.2221 C   0  0  0  0  0  0  0  0  0  0  0  0
  -90.1103   22.9339   -1.7742 C   0  0  0  0  0  0  0  0  0  0  0  0
  -91.3237   23.1902   -0.9139 C   0  0  0  0  0  0  0  0  0  0  0  0
  -92.1849   24.2235   -1.6313 C   0  0  0  0  0  0  0  0  0  0  0  0
  -91.5871   25.5818   -1.2358 C   0  0  0  0  0  0  0  0  0  0  0  0
  -92.1088   22.0263   -0.6707 N   0  0  0  0  0  0  0  0  0  0  0  0
  -93.5091   22.3919   -0.7790 C   0  0  0  0  0  0  0  0  0  0  0  0
  -94.2684   22.0715    0.4905 C   0  0  0  0  0  0  0  0  0  0  0  0
  -94.1604   20.6641    0.8067 N   0  0  0  0  0  0  0  0  0  0  0  0
  -95.1071   19.9499   -0.0174 C   0  0  0  0  0  0  0  0  0  0  0  0
  -92.8128   20.1928    0.6748 C   0  0  0  0  0  0  0  0  0  0  0  0
  -91.8258   21.3625    0.5631 C   0  0  0  0  0  0  0  0  0  0  0  0
  -89.3022   30.4283   -0.3871 C   0  0  0  0  0  0  0  0  0  0  0  0
  -89.2372   29.5556    0.7193 O   0  0  0  0  0  0  0  0  0  0  0  0
  -87.0186   28.6057    1.9818 N   0  0  0  0  0  0  0  0  0  0  0  0
  -87.3872   28.7575    2.9902 H   0  0  0  0  0  0  0  0  0  0  0  0
  -85.8562   29.3031    1.6295 C   0  0  0  0  0  0  0  0  0  0  0  0
  -84.5975   28.9781    1.8741 N   0  0  0  0  0  0  0  0  0  0  0  0
  -83.5067   29.6689    1.5225 C   0  0  0  0  0  0  0  0  0  0  0  0
  -83.6567   30.8538    0.8291 C   0  0  0  0  0  0  0  0  0  0  0  0
  -82.2679   31.7928    0.3470 Cl  0  0  0  0  0  0  0  0  0  0  0  0
  -84.9550   31.2334    0.5510 C   0  0  0  0  0  0  0  0  0  0  0  0
  -85.1057   32.4554   -0.1639 N   0  0  0  0  0  0  0  0  0  0  0  0
  -85.9996   30.4944    0.9326 N   0  0  0  0  0  0  0  0  0  0  0  0
  -85.8495   33.1139    0.1194 H   0  0  0  0  0  0  0  0  0  0  0  0
  -84.4760   32.6647   -0.9477 H   0  0  0  0  0  0  0  0  0  0  0  0
 20 21  1  0  0  0
 21  1  1  0  0  0
  1  2  2  0  0  0
  2  3  1  0  0  0
  3  4  2  0  0  0
  4  5  1  0  0  0
  5  6  2  0  0  0
  6 22  1  0  0  0
 22 24  1  0  0  0
 24 25  2  0  0  0
 25 26  1  0  0  0
 26 27  2  0  0  0
 27 28  1  0  0  0
 27 29  1  0  0  0
 29 30  1  0  0  0
 29 31  2  0  0  0
  3  7  1  0  0  0
  7  8  1  0  0  0
  8  9  1  0  0  0
  9 10  1  0  0  0
 10 11  1  0  0  0
 11 12  1  0  0  0
 10 13  1  0  0  0
 13 14  1  0  0  0
 14 15  1  0  0  0
 15 16  1  0  0  0
 16 17  1  0  0  0
 16 18  1  0  0  0
 18 19  1  0  0  0
  6  1  1  0  0  0
 31 24  1  0  0  0
 12  7  1  0  0  0
 19 13  1  0  0  0
 22 23  1  0  0  0
 30 32  1  0  0  0
 30 33  1  0  0  0
M  END
> <minimizedAffinity>
-6.51181

> <CNNscore>
0.0600678697

> <CNNaffinity>
5.9111499786

> <CNN_VS>
0.3550701737

> <CNNaffinity_variance>
0.1059147120

$$$$
[H]c1nc(N([H])c2c(OC([H])([H])[H])nc(N3C([H])([H])C([H])([H])C([H])(N4C([H])([H])C([H])([H])N(C([H])([H])[H])C([H])([H])C4([H])[H])C([H])([H])C3([H])[H])c([H])c2[H])nc(N([H])[H])c1Cl


 33 36  0  0  0  0  0  0  0  0999 V2000
  -89.1961   30.1043   -1.7613 C   0  0  0  0  0  0  0  0  0  0  0  0
  -89.6406   30.6880   -2.8510 N   0  0  0  0  0  0  0  0  0  0  0  0
  -89.4152   31.9827   -3.1464 C   0  0  0  0  0  0  0  0  0  0  0  0
  -88.6821   32.7144   -2.2530 C   0  0  0  0  0  0  0  0  0  0  0  0
  -88.1760   32.1454   -1.0634 C   0  0  0  0  0  0  0  0  0  0  0  0
  -88.4339   30.8345   -0.8158 C   0  0  0  0  0  0  0  0  0  0  0  0
  -89.8999   32.5815   -4.3296 N   0  0  0  0  0  0  0  0  0  0  0  0
  -91.2151   32.3971   -4.8848 C   0  0  0  0  0  0  0  0  0  0  0  0
  -92.0031   33.7168   -4.8595 C   0  0  0  0  0  0  0  0  0  0  0  0
  -90.9573   34.8014   -4.7700 C   0  0  0  0  0  0  0  0  0  0  0  0
  -89.8546   34.4589   -5.7653 C   0  0  0  0  0  0  0  0  0  0  0  0
  -88.9371   33.4787   -5.0194 C   0  0  0  0  0  0  0  0  0  0  0  0
  -91.4560   36.1029   -5.0660 N   0  0  0  0  0  0  0  0  0  0  0  0
  -90.3426   36.9299   -5.4933 C   0  0  0  0  0  0  0  0  0  0  0  0
  -90.2001   38.1632   -4.6277 C   0  0  0  0  0  0  0  0  0  0  0  0
  -91.4175   38.9442   -4.6501 N   0  0  0  0  0  0  0  0  0  0  0  0
  -91.4249   39.7201   -5.8681 C   0  0  0  0  0  0  0  0  0  0  0  0
  -92.5793   38.1202   -4.4861 C   0  0  0  0  0  0  0  0  0  0  0  0
  -92.1970   36.7134   -4.0071 C   0  0  0  0  0  0  0  0  0  0  0  0
  -89.2219   27.8186   -2.5046 C   0  0  0  0  0  0  0  0  0  0  0  0
  -89.4471   28.7748   -1.4923 O   0  0  0  0  0  0  0  0  0  0  0  0
  -87.9812   30.1655    0.3340 N   0  0  0  0  0  0  0  0  0  0  0  0
  -88.7389   29.7583    0.9942 H   0  0  0  0  0  0  0  0  0  0  0  0
  -86.6481   29.9698    0.7165 C   0  0  0  0  0  0  0  0  0  0  0  0
  -85.6291   30.8052    0.6001 N   0  0  0  0  0  0  0  0  0  0  0  0
  -84.3639   30.5863    0.9767 C   0  0  0  0  0  0  0  0  0  0  0  0
  -84.0348   29.3752    1.5534 C   0  0  0  0  0  0  0  0  0  0  0  0
  -82.4006   29.0388    2.0621 Cl  0  0  0  0  0  0  0  0  0  0  0  0
  -85.0684   28.4705    1.6952 C   0  0  0  0  0  0  0  0  0  0  0  0
  -84.7254   27.2231    2.2900 N   0  0  0  0  0  0  0  0  0  0  0  0
  -86.3105   28.7553    1.2965 N   0  0  0  0  0  0  0  0  0  0  0  0
  -85.1185   26.3537    1.8943 H   0  0  0  0  0  0  0  0  0  0  0  0
  -84.0949   27.2049    3.1004 H   0  0  0  0  0  0  0  0  0  0  0  0
 20 21  1  0  0  0
 21  1  1  0  0  0
  1  2  2  0  0  0
  2  3  1  0  0  0
  3  4  2  0  0  0
  4  5  1  0  0  0
  5  6  2  0  0  0
  6 22  1  0  0  0
 22 24  1  0  0  0
 24 25  2  0  0  0
 25 26  1  0  0  0
 26 27  2  0  0  0
 27 28  1  0  0  0
 27 29  1  0  0  0
 29 30  1  0  0  0
 29 31  2  0  0  0
  3  7  1  0  0  0
  7  8  1  0  0  0
  8  9  1  0  0  0
  9 10  1  0  0  0
 10 11  1  0  0  0
 11 12  1  0  0  0
 10 13  1  0  0  0
 13 14  1  0  0  0
 14 15  1  0  0  0
 15 16  1  0  0  0
 16 17  1  0  0  0
 16 18  1  0  0  0
 18 19  1  0  0  0
  6  1  1  0  0  0
 31 24  1  0  0  0
 12  7  1  0  0  0
 19 13  1  0  0  0
 22 23  1  0  0  0
 30 32  1  0  0  0
 30 33  1  0  0  0
M  END
> <minimizedAffinity>
-6.48295

> <CNNscore>
0.0520421192

> <CNNaffinity>
5.8403100967

> <CNN_VS>
0.3039421141

> <CNNaffinity_variance>
0.0654373690

$$$$
[H]Oc1c([H])c(O[H])c2nc(N([H])C(=O)c3c([H])nc([H])c([H])c3[H])c(N(c3c([H])c([H])c([H])c([H])c3[H])C([H])([H])C([H])([H])[H])c([H])c2c1[H]


 33 36  0  0  0  0  0  0  0  0999 V2000
  -87.4933   32.1838   -2.0430 C   0  0  0  0  0  0  0  0  0  0  0  0
  -87.2795   31.4831   -0.8667 C   0  0  0  0  0  0  0  0  0  0  0  0
  -86.1035   31.6778   -0.1918 C   0  0  0  0  0  0  0  0  0  0  0  0
  -85.8531   30.9903    0.9957 C   0  0  0  0  0  0  0  0  0  0  0  0
  -84.6823   31.1951    1.6527 C   0  0  0  0  0  0  0  0  0  0  0  0
  -84.4450   30.5010    2.8391 O   0  0  0  0  0  0  0  0  0  0  0  0
  -83.7420   32.0684    1.1654 C   0  0  0  0  0  0  0  0  0  0  0  0
  -83.9853   32.7524   -0.0112 C   0  0  0  0  0  0  0  0  0  0  0  0
  -83.0680   33.6413   -0.5393 O   0  0  0  0  0  0  0  0  0  0  0  0
  -85.1787   32.5583   -0.7017 C   0  0  0  0  0  0  0  0  0  0  0  0
  -85.4193   33.2198   -1.8441 N   0  0  0  0  0  0  0  0  0  0  0  0
  -86.5745   33.0616   -2.5551 C   0  0  0  0  0  0  0  0  0  0  0  0
  -84.7385   30.9232    3.7145 H   0  0  0  0  0  0  0  0  0  0  0  0
  -82.1869   33.8640   -0.1432 H   0  0  0  0  0  0  0  0  0  0  0  0
  -86.7266   33.7934   -3.7587 N   0  0  0  0  0  0  0  0  0  0  0  0
  -87.1346   35.1544   -3.7755 C   0  0  0  0  0  0  0  0  0  0  0  0
  -87.3798   35.7382   -2.6626 O   0  0  0  0  0  0  0  0  0  0  0  0
  -86.5295   33.3256   -4.6588 H   0  0  0  0  0  0  0  0  0  0  0  0
  -87.2964   35.9437   -4.9781 C   0  0  0  0  0  0  0  0  0  0  0  0
  -86.4906   37.0365   -5.2125 C   0  0  0  0  0  0  0  0  0  0  0  0
  -86.6339   37.8082   -6.3682 C   0  0  0  0  0  0  0  0  0  0  0  0
  -87.6007   37.4683   -7.2903 C   0  0  0  0  0  0  0  0  0  0  0  0
  -88.3898   36.4099   -7.0754 N   0  0  0  0  0  0  0  0  0  0  0  0
  -88.2372   35.6692   -5.9454 C   0  0  0  0  0  0  0  0  0  0  0  0
  -88.7204   31.9894   -2.7245 N   0  0  0  0  0  0  0  0  0  0  0  0
  -89.3859   30.7248   -2.5314 C   0  0  0  0  0  0  0  0  0  0  0  0
  -88.7791   29.5325   -2.8633 C   0  0  0  0  0  0  0  0  0  0  0  0
  -89.4584   28.3395   -2.6607 C   0  0  0  0  0  0  0  0  0  0  0  0
  -90.7361   28.3068   -2.1317 C   0  0  0  0  0  0  0  0  0  0  0  0
  -91.3346   29.5029   -1.8029 C   0  0  0  0  0  0  0  0  0  0  0  0
  -90.6593   30.6724   -2.0056 C   0  0  0  0  0  0  0  0  0  0  0  0
  -89.6865   32.4657   -4.9244 C   0  0  0  0  0  0  0  0  0  0  0  0
  -89.2783   33.0101   -3.5655 C   0  0  0  0  0  0  0  0  0  0  0  0
 32 33  1  0  0  0
 33 25  1  0  0  0
 25 26  1  0  0  0
 26 27  2  0  0  0
 27 28  1  0  0  0
 28 29  2  0  0  0
 29 30  1  0  0  0
 30 31  2  0  0  0
 25  1  1  0  0  0
  1  2  2  0  0  0
  2  3  1  0  0  0
  3  4  2  0  0  0
  4  5  1  0  0  0
  5  6  1  0  0  0
  5  7  2  0  0  0
  7  8  1  0  0  0
  8  9  1  0  0  0
  8 10  2  0  0  0
 10 11  1  0  0  0
 11 12  2  0  0  0
 12 15  1  0  0  0
 15 16  1  0  0  0
 16 17  2  0  0  0
 16 19  1  0  0  0
 19 20  2  0  0  0
 20 21  1  0  0  0
 21 22  2  0  0  0
 22 23  1  0  0  0
 23 24  2  0  0  0
 31 26  1  0  0  0
 12  1  1  0  0  0
 24 19  1  0  0  0
 10  3  1  0  0  0
  6 13  1  0  0  0
  9 14  1  0  0  0
 15 18  1  0  0  0
M  END
> <minimizedAffinity>
-7.97251

> <CNNscore>
0.6446316242

> <CNNaffinity>
6.5039200783

> <CNN_VS>
4.1926326752

> <CNNaffinity_variance>
0.4769362509

$$$$
[H]Oc1c([H])c(O[H])c2nc(N([H])C(=O)c3c([H])nc([H])c([H])c3[H])c(N(c3c([H])c([H])c([H])c([H])c3[H])C([H])([H])C([H])([H])[H])c([H])c2c1[H]


 33 36  0  0  0  0  0  0  0  0999 V2000
  -87.2141   31.4726   -0.6028 C   0  0  0  0  0  0  0  0  0  0  0  0
  -86.4897   30.4679    0.0186 C   0  0  0  0  0  0  0  0  0  0  0  0
  -85.1952   30.7240    0.3862 C   0  0  0  0  0  0  0  0  0  0  0  0
  -84.4352   29.7372    1.0141 C   0  0  0  0  0  0  0  0  0  0  0  0
  -83.1534   30.0076    1.3725 C   0  0  0  0  0  0  0  0  0  0  0  0
  -82.4047   29.0117    1.9997 O   0  0  0  0  0  0  0  0  0  0  0  0
  -82.5951   31.2371    1.1259 C   0  0  0  0  0  0  0  0  0  0  0  0
  -83.3443   32.2186    0.5038 C   0  0  0  0  0  0  0  0  0  0  0  0
  -82.8241   33.4707    0.2356 O   0  0  0  0  0  0  0  0  0  0  0  0
  -84.6604   31.9639    0.1277 C   0  0  0  0  0  0  0  0  0  0  0  0
  -85.3913   32.9133   -0.4764 N   0  0  0  0  0  0  0  0  0  0  0  0
  -86.6851   32.7093   -0.8630 C   0  0  0  0  0  0  0  0  0  0  0  0
  -82.4278   28.9538    3.0130 H   0  0  0  0  0  0  0  0  0  0  0  0
  -81.9051   33.7722    0.4534 H   0  0  0  0  0  0  0  0  0  0  0  0
  -87.3672   33.7700   -1.5089 N   0  0  0  0  0  0  0  0  0  0  0  0
  -87.0667   34.1699   -2.8389 C   0  0  0  0  0  0  0  0  0  0  0  0
  -86.1414   33.5533   -3.4738 O   0  0  0  0  0  0  0  0  0  0  0  0
  -88.1146   34.2698   -0.9996 H   0  0  0  0  0  0  0  0  0  0  0  0
  -87.7405   35.2411   -3.5415 C   0  0  0  0  0  0  0  0  0  0  0  0
  -89.0821   35.4786   -3.3360 C   0  0  0  0  0  0  0  0  0  0  0  0
  -89.7469   36.5085   -4.0061 C   0  0  0  0  0  0  0  0  0  0  0  0
  -89.0455   37.3012   -4.8894 C   0  0  0  0  0  0  0  0  0  0  0  0
  -87.7427   37.0818   -5.0983 N   0  0  0  0  0  0  0  0  0  0  0  0
  -87.1106   36.0752   -4.4380 C   0  0  0  0  0  0  0  0  0  0  0  0
  -88.5581   31.2042   -0.9630 N   0  0  0  0  0  0  0  0  0  0  0  0
  -88.8965   31.3061   -2.3610 C   0  0  0  0  0  0  0  0  0  0  0  0
  -88.0919   30.7622   -3.3392 C   0  0  0  0  0  0  0  0  0  0  0  0
  -88.4572   30.8855   -4.6723 C   0  0  0  0  0  0  0  0  0  0  0  0
  -89.6127   31.5422   -5.0556 C   0  0  0  0  0  0  0  0  0  0  0  0
  -90.4106   32.0825   -4.0715 C   0  0  0  0  0  0  0  0  0  0  0  0
  -90.0438   31.9568   -2.7620 C   0  0  0  0  0  0  0  0  0  0  0  0
  -89.9904   29.3987   -0.1332 C   0  0  0  0  0  0  0  0  0  0  0  0
  -89.5376   30.8411    0.0215 C   0  0  0  0  0  0  0  0  0  0  0  0
 32 33  1  0  0  0
 33 25  1  0  0  0
 25 26  1  0  0  0
 26 27  2  0  0  0
 27 28  1  0  0  0
 28 29  2  0  0  0
 29 30  1  0  0  0
 30 31  2  0  0  0
 25  1  1  0  0  0
  1  2  2  0  0  0
  2  3  1  0  0  0
  3  4  2  0  0  0
  4  5  1  0  0  0
  5  6  1  0  0  0
  5  7  2  0  0  0
  7  8  1  0  0  0
  8  9  1  0  0  0
  8 10  2  0  0  0
 10 11  1  0  0  0
 11 12  2  0  0  0
 12 15  1  0  0  0
 15 16  1  0  0  0
 16 17  2  0  0  0
 16 19  1  0  0  0
 19 20  2  0  0  0
 20 21  1  0  0  0
 21 22  2  0  0  0
 22 23  1  0  0  0
 23 24  2  0  0  0
 31 26  1  0  0  0
 12  1  1  0  0  0
 24 19  1  0  0  0
 10  3  1  0  0  0
  6 13  1  0  0  0
  9 14  1  0  0  0
 15 18  1  0  0  0
M  END
> <minimizedAffinity>
-8.81044

> <CNNscore>
0.3731048703

> <CNNaffinity>
6.6104040146

> <CNN_VS>
2.4663739204

> <CNNaffinity_variance>
0.1081596389

$$$$
[H]Oc1c([H])c(O[H])c2nc(N([H])C(=O)c3c([H])nc([H])c([H])c3[H])c(N(c3c([H])c([H])c([H])c([H])c3[H])C([H])([H])C([H])([H])[H])c([H])c2c1[H]


 33 36  0  0  0  0  0  0  0  0999 V2000
  -87.5484   28.2929   -0.4440 C   0  0  0  0  0  0  0  0  0  0  0  0
  -86.9081   27.5538    0.5379 C   0  0  0  0  0  0  0  0  0  0  0  0
  -85.7291   28.0266    1.0506 C   0  0  0  0  0  0  0  0  0  0  0  0
  -85.0563   27.3102    2.0404 C   0  0  0  0  0  0  0  0  0  0  0  0
  -83.8887   27.7931    2.5382 C   0  0  0  0  0  0  0  0  0  0  0  0
  -83.2263   27.0665    3.5277 O   0  0  0  0  0  0  0  0  0  0  0  0
  -83.3611   28.9753    2.0819 C   0  0  0  0  0  0  0  0  0  0  0  0
  -84.0242   29.6893    1.1010 C   0  0  0  0  0  0  0  0  0  0  0  0
  -83.5308   30.8840    0.6113 O   0  0  0  0  0  0  0  0  0  0  0  0
  -85.2227   29.2135    0.5759 C   0  0  0  0  0  0  0  0  0  0  0  0
  -85.8698   29.9029   -0.3762 N   0  0  0  0  0  0  0  0  0  0  0  0
  -87.0472   29.4757   -0.9204 C   0  0  0  0  0  0  0  0  0  0  0  0
  -83.4478   27.2581    4.4998 H   0  0  0  0  0  0  0  0  0  0  0  0
  -82.6919   31.3243    0.9031 H   0  0  0  0  0  0  0  0  0  0  0  0
  -87.6443   30.2670   -1.9327 N   0  0  0  0  0  0  0  0  0  0  0  0
  -87.7974   31.6741   -1.8074 C   0  0  0  0  0  0  0  0  0  0  0  0
  -87.3866   32.2461   -0.7380 O   0  0  0  0  0  0  0  0  0  0  0  0
  -87.9769   29.8088   -2.7971 H   0  0  0  0  0  0  0  0  0  0  0  0
  -88.3935   32.5237   -2.8164 C   0  0  0  0  0  0  0  0  0  0  0  0
  -88.9434   33.7395   -2.4728 C   0  0  0  0  0  0  0  0  0  0  0  0
  -89.5224   34.5710   -3.4347 C   0  0  0  0  0  0  0  0  0  0  0  0
  -89.5428   34.1656   -4.7522 C   0  0  0  0  0  0  0  0  0  0  0  0
  -89.0126   32.9878   -5.0997 N   0  0  0  0  0  0  0  0  0  0  0  0
  -88.4529   32.1904   -4.1511 C   0  0  0  0  0  0  0  0  0  0  0  0
  -88.7766   27.8049   -0.9553 N   0  0  0  0  0  0  0  0  0  0  0  0
  -89.7345   28.7829   -1.4085 C   0  0  0  0  0  0  0  0  0  0  0  0
  -90.3758   29.6264   -0.5269 C   0  0  0  0  0  0  0  0  0  0  0  0
  -91.2910   30.5518   -1.0086 C   0  0  0  0  0  0  0  0  0  0  0  0
  -91.5836   30.6567   -2.3564 C   0  0  0  0  0  0  0  0  0  0  0  0
  -90.9381   29.8099   -3.2299 C   0  0  0  0  0  0  0  0  0  0  0  0
  -90.0390   28.9021   -2.7478 C   0  0  0  0  0  0  0  0  0  0  0  0
  -89.6868   26.0071   -2.3479 C   0  0  0  0  0  0  0  0  0  0  0  0
  -89.0515   26.3977   -1.0237 C   0  0  0  0  0  0  0  0  0  0  0  0
 32 33  1  0  0  0
 33 25  1  0  0  0
 25 26  1  0  0  0
 26 27  2  0  0  0
 27 28  1  0  0  0
 28 29  2  0  0  0
 29 30  1  0  0  0
 30 31  2  0  0  0
 25  1  1  0  0  0
  1  2  2  0  0  0
  2  3  1  0  0  0
  3  4  2  0  0  0
  4  5  1  0  0  0
  5  6  1  0  0  0
  5  7  2  0  0  0
  7  8  1  0  0  0
  8  9  1  0  0  0
  8 10  2  0  0  0
 10 11  1  0  0  0
 11 12  2  0  0  0
 12 15  1  0  0  0
 15 16  1  0  0  0
 16 17  2  0  0  0
 16 19  1  0  0  0
 19 20  2  0  0  0
 20 21  1  0  0  0
 21 22  2  0  0  0
 22 23  1  0  0  0
 23 24  2  0  0  0
 31 26  1  0  0  0
 12  1  1  0  0  0
 24 19  1  0  0  0
 10  3  1  0  0  0
  6 13  1  0  0  0
  9 14  1  0  0  0
 15 18  1  0  0  0
M  END
> <minimizedAffinity>
-7.96110

> <CNNscore>
0.3053909242

> <CNNaffinity>
6.5473160744

> <CNN_VS>
1.9994908571

> <CNNaffinity_variance>
0.0850473344

$$$$
[H]Oc1c([H])c(O[H])c2nc(N([H])C(=O)c3c([H])nc([H])c([H])c3[H])c(N(c3c([H])c([H])c([H])c([H])c3[H])C([H])([H])C([H])([H])[H])c([H])c2c1[H]


 33 36  0  0  0  0  0  0  0  0999 V2000
  -86.8911   28.6913   -0.4994 C   0  0  0  0  0  0  0  0  0  0  0  0
  -85.9773   29.7280   -0.6022 C   0  0  0  0  0  0  0  0  0  0  0  0
  -84.9242   29.7632    0.2731 C   0  0  0  0  0  0  0  0  0  0  0  0
  -83.9842   30.7912    0.1999 C   0  0  0  0  0  0  0  0  0  0  0  0
  -82.9460   30.8112    1.0751 C   0  0  0  0  0  0  0  0  0  0  0  0
  -82.0133   31.8450    0.9906 O   0  0  0  0  0  0  0  0  0  0  0  0
  -82.8080   29.8351    2.0303 C   0  0  0  0  0  0  0  0  0  0  0  0
  -83.7370   28.8139    2.1070 C   0  0  0  0  0  0  0  0  0  0  0  0
  -83.6385   27.8101    3.0520 O   0  0  0  0  0  0  0  0  0  0  0  0
  -84.8096   28.7731    1.2202 C   0  0  0  0  0  0  0  0  0  0  0  0
  -85.7137   27.7841    1.2909 N   0  0  0  0  0  0  0  0  0  0  0  0
  -86.7812   27.7029    0.4430 C   0  0  0  0  0  0  0  0  0  0  0  0
  -81.2017   31.7178    0.3940 H   0  0  0  0  0  0  0  0  0  0  0  0
  -82.9246   27.7290    3.7351 H   0  0  0  0  0  0  0  0  0  0  0  0
  -87.6896   26.6286    0.6096 N   0  0  0  0  0  0  0  0  0  0  0  0
  -88.5425   26.5217    1.7411 C   0  0  0  0  0  0  0  0  0  0  0  0
  -88.4827   27.4259    2.6457 O   0  0  0  0  0  0  0  0  0  0  0  0
  -87.7407   25.8970   -0.1184 H   0  0  0  0  0  0  0  0  0  0  0  0
  -89.4904   25.4479    1.9507 C   0  0  0  0  0  0  0  0  0  0  0  0
  -89.9015   25.1148    3.2229 C   0  0  0  0  0  0  0  0  0  0  0  0
  -90.8157   24.0814    3.4420 C   0  0  0  0  0  0  0  0  0  0  0  0
  -91.3148   23.3828    2.3634 C   0  0  0  0  0  0  0  0  0  0  0  0
  -90.9243   23.6956    1.1230 N   0  0  0  0  0  0  0  0  0  0  0  0
  -90.0338   24.7043    0.9271 C   0  0  0  0  0  0  0  0  0  0  0  0
  -87.9669   28.6533   -1.4209 N   0  0  0  0  0  0  0  0  0  0  0  0
  -89.3007   28.6306   -0.8731 C   0  0  0  0  0  0  0  0  0  0  0  0
  -89.6889   29.5084    0.1161 C   0  0  0  0  0  0  0  0  0  0  0  0
  -90.9830   29.4492    0.6139 C   0  0  0  0  0  0  0  0  0  0  0  0
  -91.9046   28.5300    0.1459 C   0  0  0  0  0  0  0  0  0  0  0  0
  -91.5080   27.6569   -0.8426 C   0  0  0  0  0  0  0  0  0  0  0  0
  -90.2327   27.7217   -1.3270 C   0  0  0  0  0  0  0  0  0  0  0  0
  -88.0631   29.9846   -3.4747 C   0  0  0  0  0  0  0  0  0  0  0  0
  -87.7376   28.6437   -2.8379 C   0  0  0  0  0  0  0  0  0  0  0  0
 32 33  1  0  0  0
 33 25  1  0  0  0
 25 26  1  0  0  0
 26 27  2  0  0  0
 27 28  1  0  0  0
 28 29  2  0  0  0
 29 30  1  0  0  0
 30 31  2  0  0  0
 25  1  1  0  0  0
  1  2  2  0  0  0
  2  3  1  0  0  0
  3  4  2  0  0  0
  4  5  1  0  0  0
  5  6  1  0  0  0
  5  7  2  0  0  0
  7  8  1  0  0  0
  8  9  1  0  0  0
  8 10  2  0  0  0
 10 11  1  0  0  0
 11 12  2  0  0  0
 12 15  1  0  0  0
 15 16  1  0  0  0
 16 17  2  0  0  0
 16 19  1  0  0  0
 19 20  2  0  0  0
 20 21  1  0  0  0
 21 22  2  0  0  0
 22 23  1  0  0  0
 23 24  2  0  0  0
 31 26  1  0  0  0
 12  1  1  0  0  0
 24 19  1  0  0  0
 10  3  1  0  0  0
  6 13  1  0  0  0
  9 14  1  0  0  0
 15 18  1  0  0  0
M  END
> <minimizedAffinity>
-8.28712

> <CNNscore>
0.2882717550

> <CNNaffinity>
6.4481210709

> <CNN_VS>
1.8588111401

> <CNNaffinity_variance>
0.1066532284

$$$$
[H]Oc1c([H])c(O[H])c2nc(N([H])C(=O)c3c([H])nc([H])c([H])c3[H])c(N(c3c([H])c([H])c([H])c([H])c3[H])C([H])([H])C([H])([H])[H])c([H])c2c1[H]


 33 36  0  0  0  0  0  0  0  0999 V2000
  -87.2309   31.2166   -0.4534 C   0  0  0  0  0  0  0  0  0  0  0  0
  -86.4660   30.2883    0.2347 C   0  0  0  0  0  0  0  0  0  0  0  0
  -85.1556   30.5859    0.5002 C   0  0  0  0  0  0  0  0  0  0  0  0
  -84.3548   29.6763    1.1909 C   0  0  0  0  0  0  0  0  0  0  0  0
  -83.0577   29.9870    1.4463 C   0  0  0  0  0  0  0  0  0  0  0  0
  -82.2683   29.0682    2.1379 O   0  0  0  0  0  0  0  0  0  0  0  0
  -82.5232   31.1825    1.0348 C   0  0  0  0  0  0  0  0  0  0  0  0
  -83.3127   32.0876    0.3499 C   0  0  0  0  0  0  0  0  0  0  0  0
  -82.8176   33.3032   -0.0835 O   0  0  0  0  0  0  0  0  0  0  0  0
  -84.6453   31.7904    0.0770 C   0  0  0  0  0  0  0  0  0  0  0  0
  -85.4153   32.6656   -0.5875 N   0  0  0  0  0  0  0  0  0  0  0  0
  -86.7266   32.4177   -0.8776 C   0  0  0  0  0  0  0  0  0  0  0  0
  -82.2358   29.1231    3.1512 H   0  0  0  0  0  0  0  0  0  0  0  0
  -81.8906   33.6286    0.0490 H   0  0  0  0  0  0  0  0  0  0  0  0
  -87.4510   33.3989   -1.5986 N   0  0  0  0  0  0  0  0  0  0  0  0
  -87.5202   33.4038   -3.0179 C   0  0  0  0  0  0  0  0  0  0  0  0
  -86.8998   32.4920   -3.6684 O   0  0  0  0  0  0  0  0  0  0  0  0
  -87.9530   34.1363   -1.0769 H   0  0  0  0  0  0  0  0  0  0  0  0
  -88.2526   34.3799   -3.7964 C   0  0  0  0  0  0  0  0  0  0  0  0
  -88.7319   35.5293   -3.2068 C   0  0  0  0  0  0  0  0  0  0  0  0
  -89.4404   36.4811   -3.9443 C   0  0  0  0  0  0  0  0  0  0  0  0
  -89.6632   36.2643   -5.2874 C   0  0  0  0  0  0  0  0  0  0  0  0
  -89.2035   35.1528   -5.8725 N   0  0  0  0  0  0  0  0  0  0  0  0
  -88.5157   34.2364   -5.1403 C   0  0  0  0  0  0  0  0  0  0  0  0
  -88.5904   30.9075   -0.7075 N   0  0  0  0  0  0  0  0  0  0  0  0
  -88.9142   29.5245   -0.9566 C   0  0  0  0  0  0  0  0  0  0  0  0
  -88.4960   28.8810   -2.1016 C   0  0  0  0  0  0  0  0  0  0  0  0
  -88.8322   27.5492   -2.2994 C   0  0  0  0  0  0  0  0  0  0  0  0
  -89.5799   26.8395   -1.3771 C   0  0  0  0  0  0  0  0  0  0  0  0
  -89.9933   27.4905   -0.2360 C   0  0  0  0  0  0  0  0  0  0  0  0
  -89.6584   28.8012   -0.0490 C   0  0  0  0  0  0  0  0  0  0  0  0
  -90.5085   31.8230   -1.9250 C   0  0  0  0  0  0  0  0  0  0  0  0
  -89.6008   31.9270   -0.7106 C   0  0  0  0  0  0  0  0  0  0  0  0
 32 33  1  0  0  0
 33 25  1  0  0  0
 25 26  1  0  0  0
 26 27  2  0  0  0
 27 28  1  0  0  0
 28 29  2  0  0  0
 29 30  1  0  0  0
 30 31  2  0  0  0
 25  1  1  0  0  0
  1  2  2  0  0  0
  2  3  1  0  0  0
  3  4  2  0  0  0
  4  5  1  0  0  0
  5  6  1  0  0  0
  5  7  2  0  0  0
  7  8  1  0  0  0
  8  9  1  0  0  0
  8 10  2  0  0  0
 10 11  1  0  0  0
 11 12  2  0  0  0
 12 15  1  0  0  0
 15 16  1  0  0  0
 16 17  2  0  0  0
 16 19  1  0  0  0
 19 20  2  0  0  0
 20 21  1  0  0  0
 21 22  2  0  0  0
 22 23  1  0  0  0
 23 24  2  0  0  0
 31 26  1  0  0  0
 12  1  1  0  0  0
 24 19  1  0  0  0
 10  3  1  0  0  0
  6 13  1  0  0  0
  9 14  1  0  0  0
 15 18  1  0  0  0
M  END
> <minimizedAffinity>
-9.08667

> <CNNscore>
0.2616881728

> <CNNaffinity>
6.5704469681

> <CNN_VS>
1.7194082737

> <CNNaffinity_variance>
0.0749089047

$$$$
[H]Oc1c([H])c(O[H])c2nc(N([H])C(=O)c3c([H])nc([H])c([H])c3[H])c(N(c3c([H])c([H])c([H])c([H])c3[H])C([H])([H])C([H])([H])[H])c([H])c2c1[H]


 33 36  0  0  0  0  0  0  0  0999 V2000
  -87.5026   31.2483   -1.7024 C   0  0  0  0  0  0  0  0  0  0  0  0
  -86.4467   32.0319   -1.2652 C   0  0  0  0  0  0  0  0  0  0  0  0
  -85.6106   31.5286   -0.3039 C   0  0  0  0  0  0  0  0  0  0  0  0
  -84.5368   32.2882    0.1606 C   0  0  0  0  0  0  0  0  0  0  0  0
  -83.7172   31.7742    1.1138 C   0  0  0  0  0  0  0  0  0  0  0  0
  -82.6473   32.5447    1.5692 O   0  0  0  0  0  0  0  0  0  0  0  0
  -83.9298   30.5188    1.6265 C   0  0  0  0  0  0  0  0  0  0  0  0
  -84.9926   29.7618    1.1694 C   0  0  0  0  0  0  0  0  0  0  0  0
  -85.2453   28.4932    1.6564 O   0  0  0  0  0  0  0  0  0  0  0  0
  -85.8459   30.2683    0.1927 C   0  0  0  0  0  0  0  0  0  0  0  0
  -86.8788   29.5374   -0.2540 N   0  0  0  0  0  0  0  0  0  0  0  0
  -87.7414   29.9922   -1.2100 C   0  0  0  0  0  0  0  0  0  0  0  0
  -81.7547   32.4645    1.0920 H   0  0  0  0  0  0  0  0  0  0  0  0
  -84.7128   28.0249    2.3493 H   0  0  0  0  0  0  0  0  0  0  0  0
  -88.8113   29.1507   -1.6029 N   0  0  0  0  0  0  0  0  0  0  0  0
  -89.8603   28.7887   -0.7153 C   0  0  0  0  0  0  0  0  0  0  0  0
  -89.8335   29.2343    0.4848 O   0  0  0  0  0  0  0  0  0  0  0  0
  -88.8363   28.7893   -2.5707 H   0  0  0  0  0  0  0  0  0  0  0  0
  -90.9762   27.9391   -1.0732 C   0  0  0  0  0  0  0  0  0  0  0  0
  -91.7104   28.1895   -2.2119 C   0  0  0  0  0  0  0  0  0  0  0  0
  -92.7900   27.3789   -2.5713 C   0  0  0  0  0  0  0  0  0  0  0  0
  -93.1255   26.3085   -1.7699 C   0  0  0  0  0  0  0  0  0  0  0  0
  -92.4213   26.0538   -0.6617 N   0  0  0  0  0  0  0  0  0  0  0  0
  -91.3733   26.8526   -0.3262 C   0  0  0  0  0  0  0  0  0  0  0  0
  -88.3513   31.7703   -2.7101 N   0  0  0  0  0  0  0  0  0  0  0  0
  -88.2485   33.1812   -2.9896 C   0  0  0  0  0  0  0  0  0  0  0  0
  -87.0742   33.7428   -3.4429 C   0  0  0  0  0  0  0  0  0  0  0  0
  -87.0216   35.1059   -3.6980 C   0  0  0  0  0  0  0  0  0  0  0  0
  -88.1187   35.9272   -3.5109 C   0  0  0  0  0  0  0  0  0  0  0  0
  -89.2879   35.3575   -3.0578 C   0  0  0  0  0  0  0  0  0  0  0  0
  -89.3313   34.0154   -2.8091 C   0  0  0  0  0  0  0  0  0  0  0  0
  -89.0622   31.0114   -4.9278 C   0  0  0  0  0  0  0  0  0  0  0  0
  -89.2689   30.9288   -3.4245 C   0  0  0  0  0  0  0  0  0  0  0  0
 32 33  1  0  0  0
 33 25  1  0  0  0
 25 26  1  0  0  0
 26 27  2  0  0  0
 27 28  1  0  0  0
 28 29  2  0  0  0
 29 30  1  0  0  0
 30 31  2  0  0  0
 25  1  1  0  0  0
  1  2  2  0  0  0
  2  3  1  0  0  0
  3  4  2  0  0  0
  4  5  1  0  0  0
  5  6  1  0  0  0
  5  7  2  0  0  0
  7  8  1  0  0  0
  8  9  1  0  0  0
  8 10  2  0  0  0
 10 11  1  0  0  0
 11 12  2  0  0  0
 12 15  1  0  0  0
 15 16  1  0  0  0
 16 17  2  0  0  0
 16 19  1  0  0  0
 19 20  2  0  0  0
 20 21  1  0  0  0
 21 22  2  0  0  0
 22 23  1  0  0  0
 23 24  2  0  0  0
 31 26  1  0  0  0
 12  1  1  0  0  0
 24 19  1  0  0  0
 10  3  1  0  0  0
  6 13  1  0  0  0
  9 14  1  0  0  0
 15 18  1  0  0  0
M  END
> <minimizedAffinity>
-7.27893

> <CNNscore>
0.2608142197

> <CNNaffinity>
6.4115157127

> <CNN_VS>
1.6722145081

> <CNNaffinity_variance>
0.0914604664

$$$$
[H]Oc1c([H])c(O[H])c2nc(N([H])C(=O)c3c([H])nc([H])c([H])c3[H])c(N(c3c([H])c([H])c([H])c([H])c3[H])C([H])([H])C([H])([H])[H])c([H])c2c1[H]


 33 36  0  0  0  0  0  0  0  0999 V2000
  -87.7246   29.6882   -1.0623 C   0  0  0  0  0  0  0  0  0  0  0  0
  -87.3583   31.0239   -1.1071 C   0  0  0  0  0  0  0  0  0  0  0  0
  -87.5001   31.7036   -2.2879 C   0  0  0  0  0  0  0  0  0  0  0  0
  -87.1422   33.0492   -2.3710 C   0  0  0  0  0  0  0  0  0  0  0  0
  -87.2894   33.7085   -3.5492 C   0  0  0  0  0  0  0  0  0  0  0  0
  -86.9275   35.0539   -3.6182 O   0  0  0  0  0  0  0  0  0  0  0  0
  -87.7850   33.0704   -4.6589 C   0  0  0  0  0  0  0  0  0  0  0  0
  -88.1413   31.7368   -4.5817 C   0  0  0  0  0  0  0  0  0  0  0  0
  -88.6444   31.0536   -5.6729 O   0  0  0  0  0  0  0  0  0  0  0  0
  -87.9990   31.0407   -3.3843 C   0  0  0  0  0  0  0  0  0  0  0  0
  -88.3434   29.7463   -3.3046 N   0  0  0  0  0  0  0  0  0  0  0  0
  -88.2216   29.0235   -2.1523 C   0  0  0  0  0  0  0  0  0  0  0  0
  -87.6299   35.7560   -3.4074 H   0  0  0  0  0  0  0  0  0  0  0  0
  -88.7917   31.4367   -6.5753 H   0  0  0  0  0  0  0  0  0  0  0  0
  -88.5970   27.6575   -2.1747 N   0  0  0  0  0  0  0  0  0  0  0  0
  -89.9536   27.2424   -2.2550 C   0  0  0  0  0  0  0  0  0  0  0  0
  -90.8699   28.1356   -2.3022 O   0  0  0  0  0  0  0  0  0  0  0  0
  -87.8603   26.9339   -2.1368 H   0  0  0  0  0  0  0  0  0  0  0  0
  -90.3843   25.8608   -2.2880 C   0  0  0  0  0  0  0  0  0  0  0  0
  -91.6111   25.5218   -2.8157 C   0  0  0  0  0  0  0  0  0  0  0  0
  -92.0412   24.1932   -2.8551 C   0  0  0  0  0  0  0  0  0  0  0  0
  -91.2210   23.2039   -2.3558 C   0  0  0  0  0  0  0  0  0  0  0  0
  -90.0276   23.5189   -1.8407 N   0  0  0  0  0  0  0  0  0  0  0  0
  -89.6240   24.8170   -1.8100 C   0  0  0  0  0  0  0  0  0  0  0  0
  -87.5913   28.9984    0.1684 N   0  0  0  0  0  0  0  0  0  0  0  0
  -86.3161   29.0859    0.8359 C   0  0  0  0  0  0  0  0  0  0  0  0
  -86.1356   28.5989    2.1126 C   0  0  0  0  0  0  0  0  0  0  0  0
  -84.8903   28.7058    2.7159 C   0  0  0  0  0  0  0  0  0  0  0  0
  -83.8143   29.2902    2.0724 C   0  0  0  0  0  0  0  0  0  0  0  0
  -84.0039   29.7739    0.7968 C   0  0  0  0  0  0  0  0  0  0  0  0
  -85.2324   29.6649    0.2104 C   0  0  0  0  0  0  0  0  0  0  0  0
  -89.9143   29.1134    0.9367 C   0  0  0  0  0  0  0  0  0  0  0  0
  -88.6811   28.2502    0.7278 C   0  0  0  0  0  0  0  0  0  0  0  0
 32 33  1  0  0  0
 33 25  1  0  0  0
 25 26  1  0  0  0
 26 27  2  0  0  0
 27 28  1  0  0  0
 28 29  2  0  0  0
 29 30  1  0  0  0
 30 31  2  0  0  0
 25  1  1  0  0  0
  1  2  2  0  0  0
  2  3  1  0  0  0
  3  4  2  0  0  0
  4  5  1  0  0  0
  5  6  1  0  0  0
  5  7  2  0  0  0
  7  8  1  0  0  0
  8  9  1  0  0  0
  8 10  2  0  0  0
 10 11  1  0  0  0
 11 12  2  0  0  0
 12 15  1  0  0  0
 15 16  1  0  0  0
 16 17  2  0  0  0
 16 19  1  0  0  0
 19 20  2  0  0  0
 20 21  1  0  0  0
 21 22  2  0  0  0
 22 23  1  0  0  0
 23 24  2  0  0  0
 31 26  1  0  0  0
 12  1  1  0  0  0
 24 19  1  0  0  0
 10  3  1  0  0  0
  6 13  1  0  0  0
  9 14  1  0  0  0
 15 18  1  0  0  0
M  END
> <minimizedAffinity>
-9.58754

> <CNNscore>
0.1974336505

> <CNNaffinity>
6.0040116310

> <CNN_VS>
1.1853939295

> <CNNaffinity_variance>
0.3445342481

$$$$
[H]Oc1c([H])c(O[H])c2nc(N([H])C(=O)c3c([H])nc([H])c([H])c3[H])c(N(c3c([H])c([H])c([H])c([H])c3[H])C([H])([H])C([H])([H])[H])c([H])c2c1[H]


 33 36  0  0  0  0  0  0  0  0999 V2000
  -87.5619   29.8667   -0.0894 C   0  0  0  0  0  0  0  0  0  0  0  0
  -86.6353   30.8969   -0.0706 C   0  0  0  0  0  0  0  0  0  0  0  0
  -85.4185   30.6739    0.5176 C   0  0  0  0  0  0  0  0  0  0  0  0
  -84.4604   31.6870    0.5553 C   0  0  0  0  0  0  0  0  0  0  0  0
  -83.2589   31.4493    1.1421 C   0  0  0  0  0  0  0  0  0  0  0  0
  -82.3101   32.4714    1.1727 O   0  0  0  0  0  0  0  0  0  0  0  0
  -82.9736   30.2273    1.6984 C   0  0  0  0  0  0  0  0  0  0  0  0
  -83.9198   29.2198    1.6636 C   0  0  0  0  0  0  0  0  0  0  0  0
  -83.6767   27.9740    2.2108 O   0  0  0  0  0  0  0  0  0  0  0  0
  -85.1584   29.4408    1.0673 C   0  0  0  0  0  0  0  0  0  0  0  0
  -86.0798   28.4660    1.0312 N   0  0  0  0  0  0  0  0  0  0  0  0
  -87.3073   28.6366    0.4575 C   0  0  0  0  0  0  0  0  0  0  0  0
  -81.6540   32.5467    0.4016 H   0  0  0  0  0  0  0  0  0  0  0  0
  -82.8383   27.6953    2.6606 H   0  0  0  0  0  0  0  0  0  0  0  0
  -88.2172   27.5509    0.4852 N   0  0  0  0  0  0  0  0  0  0  0  0
  -88.8031   27.0796    1.6909 C   0  0  0  0  0  0  0  0  0  0  0  0
  -88.4921   27.6530    2.7927 O   0  0  0  0  0  0  0  0  0  0  0  0
  -88.4706   27.0857   -0.4021 H   0  0  0  0  0  0  0  0  0  0  0  0
  -89.7417   25.9803    1.7675 C   0  0  0  0  0  0  0  0  0  0  0  0
  -89.8777   25.2550    2.9311 C   0  0  0  0  0  0  0  0  0  0  0  0
  -90.7791   24.1915    3.0212 C   0  0  0  0  0  0  0  0  0  0  0  0
  -91.5462   23.8630    1.9238 C   0  0  0  0  0  0  0  0  0  0  0  0
  -91.4244   24.5587    0.7880 N   0  0  0  0  0  0  0  0  0  0  0  0
  -90.5423   25.5910    0.7169 C   0  0  0  0  0  0  0  0  0  0  0  0
  -88.8110   30.1011   -0.7163 N   0  0  0  0  0  0  0  0  0  0  0  0
  -88.7839   30.6247   -2.0596 C   0  0  0  0  0  0  0  0  0  0  0  0
  -88.0776   29.9979   -3.0637 C   0  0  0  0  0  0  0  0  0  0  0  0
  -88.0796   30.5387   -4.3418 C   0  0  0  0  0  0  0  0  0  0  0  0
  -88.7733   31.6965   -4.6442 C   0  0  0  0  0  0  0  0  0  0  0  0
  -89.4763   32.3160   -3.6348 C   0  0  0  0  0  0  0  0  0  0  0  0
  -89.4691   31.7774   -2.3799 C   0  0  0  0  0  0  0  0  0  0  0  0
  -91.0054   29.0322   -0.9202 C   0  0  0  0  0  0  0  0  0  0  0  0
  -90.0485   29.8235   -0.0440 C   0  0  0  0  0  0  0  0  0  0  0  0
 32 33  1  0  0  0
 33 25  1  0  0  0
 25 26  1  0  0  0
 26 27  2  0  0  0
 27 28  1  0  0  0
 28 29  2  0  0  0
 29 30  1  0  0  0
 30 31  2  0  0  0
 25  1  1  0  0  0
  1  2  2  0  0  0
  2  3  1  0  0  0
  3  4  2  0  0  0
  4  5  1  0  0  0
  5  6  1  0  0  0
  5  7  2  0  0  0
  7  8  1  0  0  0
  8  9  1  0  0  0
  8 10  2  0  0  0
 10 11  1  0  0  0
 11 12  2  0  0  0
 12 15  1  0  0  0
 15 16  1  0  0  0
 16 17  2  0  0  0
 16 19  1  0  0  0
 19 20  2  0  0  0
 20 21  1  0  0  0
 21 22  2  0  0  0
 22 23  1  0  0  0
 23 24  2  0  0  0
 31 26  1  0  0  0
 12  1  1  0  0  0
 24 19  1  0  0  0
 10  3  1  0  0  0
  6 13  1  0  0  0
  9 14  1  0  0  0
 15 18  1  0  0  0
M  END
> <minimizedAffinity>
-8.90173

> <CNNscore>
0.1892883182

> <CNNaffinity>
6.4886336327

> <CNN_VS>
1.2282224894

> <CNNaffinity_variance>
0.1095181108

$$$$
[H]Oc1c([H])c(O[H])c2nc(N([H])C(=O)c3c([H])nc([H])c([H])c3[H])c(N(c3c([H])c([H])c([H])c([H])c3[H])C([H])([H])C([H])([H])[H])c([H])c2c1[H]


 33 36  0  0  0  0  0  0  0  0999 V2000
  -87.7276   27.7506    1.0027 C   0  0  0  0  0  0  0  0  0  0  0  0
  -86.6696   27.1193    1.6370 C   0  0  0  0  0  0  0  0  0  0  0  0
  -85.4753   27.7826    1.7379 C   0  0  0  0  0  0  0  0  0  0  0  0
  -84.3880   27.1792    2.3699 C   0  0  0  0  0  0  0  0  0  0  0  0
  -83.2111   27.8507    2.4617 C   0  0  0  0  0  0  0  0  0  0  0  0
  -82.1320   27.2354    3.0963 O   0  0  0  0  0  0  0  0  0  0  0  0
  -83.0759   29.1139    1.9419 C   0  0  0  0  0  0  0  0  0  0  0  0
  -84.1506   29.7165    1.3146 C   0  0  0  0  0  0  0  0  0  0  0  0
  -84.0607   30.9865    0.7767 O   0  0  0  0  0  0  0  0  0  0  0  0
  -85.3668   29.0470    1.2088 C   0  0  0  0  0  0  0  0  0  0  0  0
  -86.4126   29.6277    0.6008 N   0  0  0  0  0  0  0  0  0  0  0  0
  -87.6239   29.0101    0.4735 C   0  0  0  0  0  0  0  0  0  0  0  0
  -82.0167   27.3701    4.0959 H   0  0  0  0  0  0  0  0  0  0  0  0
  -83.2535   31.5619    0.7883 H   0  0  0  0  0  0  0  0  0  0  0  0
  -88.6613   29.7009   -0.2003 N   0  0  0  0  0  0  0  0  0  0  0  0
  -88.6962   29.8294   -1.6150 C   0  0  0  0  0  0  0  0  0  0  0  0
  -87.7522   29.3074   -2.3049 O   0  0  0  0  0  0  0  0  0  0  0  0
  -89.4248   30.1233    0.3532 H   0  0  0  0  0  0  0  0  0  0  0  0
  -89.7377   30.5185   -2.3469 C   0  0  0  0  0  0  0  0  0  0  0  0
  -91.0144   30.0030   -2.4009 C   0  0  0  0  0  0  0  0  0  0  0  0
  -92.0307   30.6560   -3.1028 C   0  0  0  0  0  0  0  0  0  0  0  0
  -91.7487   31.8384   -3.7531 C   0  0  0  0  0  0  0  0  0  0  0  0
  -90.5137   32.3500   -3.7089 N   0  0  0  0  0  0  0  0  0  0  0  0
  -89.5359   31.7019   -3.0212 C   0  0  0  0  0  0  0  0  0  0  0  0
  -88.9642   27.0637    0.9193 N   0  0  0  0  0  0  0  0  0  0  0  0
  -89.6161   26.7310    2.1618 C   0  0  0  0  0  0  0  0  0  0  0  0
  -89.8367   25.4218    2.5323 C   0  0  0  0  0  0  0  0  0  0  0  0
  -90.4687   25.1491    3.7374 C   0  0  0  0  0  0  0  0  0  0  0  0
  -90.8883   26.1568    4.5869 C   0  0  0  0  0  0  0  0  0  0  0  0
  -90.6637   27.4620    4.2086 C   0  0  0  0  0  0  0  0  0  0  0  0
  -90.0412   27.7217    3.0212 C   0  0  0  0  0  0  0  0  0  0  0  0
  -91.0435   26.9682   -0.3719 C   0  0  0  0  0  0  0  0  0  0  0  0
  -89.5444   26.7199   -0.3478 C   0  0  0  0  0  0  0  0  0  0  0  0
 32 33  1  0  0  0
 33 25  1  0  0  0
 25 26  1  0  0  0
 26 27  2  0  0  0
 27 28  1  0  0  0
 28 29  2  0  0  0
 29 30  1  0  0  0
 30 31  2  0  0  0
 25  1  1  0  0  0
  1  2  2  0  0  0
  2  3  1  0  0  0
  3  4  2  0  0  0
  4  5  1  0  0  0
  5  6  1  0  0  0
  5  7  2  0  0  0
  7  8  1  0  0  0
  8  9  1  0  0  0
  8 10  2  0  0  0
 10 11  1  0  0  0
 11 12  2  0  0  0
 12 15  1  0  0  0
 15 16  1  0  0  0
 16 17  2  0  0  0
 16 19  1  0  0  0
 19 20  2  0  0  0
 20 21  1  0  0  0
 21 22  2  0  0  0
 22 23  1  0  0  0
 23 24  2  0  0  0
 31 26  1  0  0  0
 12  1  1  0  0  0
 24 19  1  0  0  0
 10  3  1  0  0  0
  6 13  1  0  0  0
  9 14  1  0  0  0
 15 18  1  0  0  0
M  END
> <minimizedAffinity>
-8.46534

> <CNNscore>
0.1700193584

> <CNNaffinity>
6.3473038673

> <CNN_VS>
1.0791645050

> <CNNaffinity_variance>
0.0351654701

$$$$
[H]Oc1c([H])c([H])c([H])c2c3c4c(c5c([H])c(C(=O)OC([H])([H])[H])c([H])c([H])c5c3n([H])c12)C(=O)N([H])C4=O


 30 34  0  0  0  0  0  0  0  0999 V2000
  -90.7527   29.3751   -1.1618 C   0  0  0  0  0  0  0  0  0  0  0  0
  -90.2122   30.5645   -1.6051 C   0  0  0  0  0  0  0  0  0  0  0  0
  -88.9188   30.9104   -1.2908 C   0  0  0  0  0  0  0  0  0  0  0  0
  -88.1751   30.0357   -0.5198 C   0  0  0  0  0  0  0  0  0  0  0  0
  -86.8768   30.3557   -0.1893 C   0  0  0  0  0  0  0  0  0  0  0  0
  -86.1390   31.4477   -0.5022 N   0  0  0  0  0  0  0  0  0  0  0  0
  -84.9133   31.3406    0.0348 C   0  0  0  0  0  0  0  0  0  0  0  0
  -83.8465   32.2257   -0.0360 C   0  0  0  0  0  0  0  0  0  0  0  0
  -83.9998   33.4001   -0.7417 O   0  0  0  0  0  0  0  0  0  0  0  0
  -82.6540   31.9112    0.6021 C   0  0  0  0  0  0  0  0  0  0  0  0
  -82.5606   30.7232    1.2920 C   0  0  0  0  0  0  0  0  0  0  0  0
  -83.6505   29.8536    1.3452 C   0  0  0  0  0  0  0  0  0  0  0  0
  -84.8329   30.1414    0.7257 C   0  0  0  0  0  0  0  0  0  0  0  0
  -86.0591   29.5456    0.5751 C   0  0  0  0  0  0  0  0  0  0  0  0
  -86.5750   28.3328    1.0410 C   0  0  0  0  0  0  0  0  0  0  0  0
  -86.0326   27.2713    1.8363 C   0  0  0  0  0  0  0  0  0  0  0  0
  -84.8920   27.1540    2.3457 O   0  0  0  0  0  0  0  0  0  0  0  0
  -87.0241   26.2247    2.0252 N   0  0  0  0  0  0  0  0  0  0  0  0
  -88.1639   26.6839    1.3281 C   0  0  0  0  0  0  0  0  0  0  0  0
  -89.2319   26.0365    1.2675 O   0  0  0  0  0  0  0  0  0  0  0  0
  -87.8920   27.9787    0.7220 C   0  0  0  0  0  0  0  0  0  0  0  0
  -88.6599   28.8401   -0.0512 C   0  0  0  0  0  0  0  0  0  0  0  0
  -89.9672   28.5197   -0.3850 C   0  0  0  0  0  0  0  0  0  0  0  0
  -86.5228   32.2352   -1.0850 H   0  0  0  0  0  0  0  0  0  0  0  0
  -83.2156   34.0404   -0.7879 H   0  0  0  0  0  0  0  0  0  0  0  0
  -86.8627   25.3578    2.5649 H   0  0  0  0  0  0  0  0  0  0  0  0
  -92.1229   28.9849   -1.4817 C   0  0  0  0  0  0  0  0  0  0  0  0
  -93.0487   29.8128   -1.3185 O   0  0  0  0  0  0  0  0  0  0  0  0
  -91.9900   27.3170   -3.2654 C   0  0  0  0  0  0  0  0  0  0  0  0
  -92.4152   27.7276   -1.9577 O   0  0  0  0  0  0  0  0  0  0  0  0
 29 30  1  0  0  0
 30 27  1  0  0  0
 27 28  2  0  0  0
 27  1  1  0  0  0
  1  2  2  0  0  0
  2  3  1  0  0  0
  3  4  2  0  0  0
  4  5  1  0  0  0
  5  6  1  0  0  0
  6  7  1  0  0  0
  7  8  2  0  0  0
  8  9  1  0  0  0
  8 10  1  0  0  0
 10 11  2  0  0  0
 11 12  1  0  0  0
 12 13  2  0  0  0
 13 14  1  0  0  0
 14 15  1  0  0  0
 15 16  1  0  0  0
 16 17  2  0  0  0
 16 18  1  0  0  0
 18 19  1  0  0  0
 19 20  2  0  0  0
 19 21  1  0  0  0
 21 22  1  0  0  0
 22 23  2  0  0  0
 23  1  1  0  0  0
 22  4  1  0  0  0
 14  5  2  0  0  0
 21 15  2  0  0  0
 13  7  1  0  0  0
  6 24  1  0  0  0
  9 25  1  0  0  0
 18 26  1  0  0  0
M  END
> <minimizedAffinity>
-10.01312

> <CNNscore>
0.7430173159

> <CNNaffinity>
6.5733780861

> <CNN_VS>
4.8841338158

> <CNNaffinity_variance>
0.3410564065

$$$$
[H]Oc1c([H])c([H])c([H])c2c3c4c(c5c([H])c(C(=O)OC([H])([H])[H])c([H])c([H])c5c3n([H])c12)C(=O)N([H])C4=O


 30 34  0  0  0  0  0  0  0  0999 V2000
  -87.6113   27.9055    1.1607 C   0  0  0  0  0  0  0  0  0  0  0  0
  -88.7877   28.2005    0.5031 C   0  0  0  0  0  0  0  0  0  0  0  0
  -88.9115   29.3545   -0.2346 C   0  0  0  0  0  0  0  0  0  0  0  0
  -87.8274   30.2106   -0.2998 C   0  0  0  0  0  0  0  0  0  0  0  0
  -87.9225   31.3739   -1.0311 C   0  0  0  0  0  0  0  0  0  0  0  0
  -88.9561   31.8716   -1.7511 N   0  0  0  0  0  0  0  0  0  0  0  0
  -88.6055   33.0433   -2.3048 C   0  0  0  0  0  0  0  0  0  0  0  0
  -89.3533   33.8874   -3.1138 C   0  0  0  0  0  0  0  0  0  0  0  0
  -90.6468   33.5326   -3.4329 O   0  0  0  0  0  0  0  0  0  0  0  0
  -88.7859   35.0650   -3.5822 C   0  0  0  0  0  0  0  0  0  0  0  0
  -87.4892   35.3660   -3.2298 C   0  0  0  0  0  0  0  0  0  0  0  0
  -86.7625   34.4973   -2.4148 C   0  0  0  0  0  0  0  0  0  0  0  0
  -87.2994   33.3340   -1.9424 C   0  0  0  0  0  0  0  0  0  0  0  0
  -86.8935   32.2880   -1.1535 C   0  0  0  0  0  0  0  0  0  0  0  0
  -85.6872   32.0205   -0.4998 C   0  0  0  0  0  0  0  0  0  0  0  0
  -84.4406   32.7209   -0.4057 C   0  0  0  0  0  0  0  0  0  0  0  0
  -84.0953   33.8144   -0.9150 O   0  0  0  0  0  0  0  0  0  0  0  0
  -83.5044   31.9764    0.4211 N   0  0  0  0  0  0  0  0  0  0  0  0
  -84.2175   30.8224    0.8157 C   0  0  0  0  0  0  0  0  0  0  0  0
  -83.7259   29.9344    1.5458 O   0  0  0  0  0  0  0  0  0  0  0  0
  -85.5590   30.8458    0.2519 C   0  0  0  0  0  0  0  0  0  0  0  0
  -86.6335   29.9693    0.3332 C   0  0  0  0  0  0  0  0  0  0  0  0
  -86.5398   28.7976    1.0691 C   0  0  0  0  0  0  0  0  0  0  0  0
  -89.8775   31.3695   -1.8299 H   0  0  0  0  0  0  0  0  0  0  0  0
  -91.1853   34.1551   -4.0240 H   0  0  0  0  0  0  0  0  0  0  0  0
  -82.5404   32.2836    0.6334 H   0  0  0  0  0  0  0  0  0  0  0  0
  -87.4544   26.6873    1.9502 C   0  0  0  0  0  0  0  0  0  0  0  0
  -86.3260   26.3976    2.4105 O   0  0  0  0  0  0  0  0  0  0  0  0
  -89.1387   25.8103    3.4914 C   0  0  0  0  0  0  0  0  0  0  0  0
  -88.5207   25.8536    2.1970 O   0  0  0  0  0  0  0  0  0  0  0  0
 29 30  1  0  0  0
 30 27  1  0  0  0
 27 28  2  0  0  0
 27  1  1  0  0  0
  1  2  2  0  0  0
  2  3  1  0  0  0
  3  4  2  0  0  0
  4  5  1  0  0  0
  5  6  1  0  0  0
  6  7  1  0  0  0
  7  8  2  0  0  0
  8  9  1  0  0  0
  8 10  1  0  0  0
 10 11  2  0  0  0
 11 12  1  0  0  0
 12 13  2  0  0  0
 13 14  1  0  0  0
 14 15  1  0  0  0
 15 16  1  0  0  0
 16 17  2  0  0  0
 16 18  1  0  0  0
 18 19  1  0  0  0
 19 20  2  0  0  0
 19 21  1  0  0  0
 21 22  1  0  0  0
 22 23  2  0  0  0
 23  1  1  0  0  0
 22  4  1  0  0  0
 14  5  2  0  0  0
 21 15  2  0  0  0
 13  7  1  0  0  0
  6 24  1  0  0  0
  9 25  1  0  0  0
 18 26  1  0  0  0
M  END
> <minimizedAffinity>
-9.65840

> <CNNscore>
0.6381932497

> <CNNaffinity>
6.3625273705

> <CNN_VS>
4.0605220795

> <CNNaffinity_variance>
0.1089090928

$$$$
[H]Oc1c([H])c([H])c([H])c2c3c4c(c5c([H])c(C(=O)OC([H])([H])[H])c([H])c([H])c5c3n([H])c12)C(=O)N([H])C4=O


 30 34  0  0  0  0  0  0  0  0999 V2000
  -90.7544   29.9913   -1.3679 C   0  0  0  0  0  0  0  0  0  0  0  0
  -90.4073   28.8431   -0.6863 C   0  0  0  0  0  0  0  0  0  0  0  0
  -89.1540   28.7015   -0.1381 C   0  0  0  0  0  0  0  0  0  0  0  0
  -88.2518   29.7389   -0.2878 C   0  0  0  0  0  0  0  0  0  0  0  0
  -86.9892   29.6251    0.2506 C   0  0  0  0  0  0  0  0  0  0  0  0
  -86.4257   28.6119    0.9509 N   0  0  0  0  0  0  0  0  0  0  0  0
  -85.1644   28.9309    1.2820 C   0  0  0  0  0  0  0  0  0  0  0  0
  -84.2323   28.1889    1.9941 C   0  0  0  0  0  0  0  0  0  0  0  0
  -84.5864   26.9389    2.4555 O   0  0  0  0  0  0  0  0  0  0  0  0
  -82.9696   28.7184    2.2252 C   0  0  0  0  0  0  0  0  0  0  0  0
  -82.6739   29.9724    1.7393 C   0  0  0  0  0  0  0  0  0  0  0  0
  -83.6321   30.6944    1.0269 C   0  0  0  0  0  0  0  0  0  0  0  0
  -84.8800   30.1943    0.7874 C   0  0  0  0  0  0  0  0  0  0  0  0
  -86.0228   30.6078    0.1517 C   0  0  0  0  0  0  0  0  0  0  0  0
  -86.3409   31.7845   -0.5326 C   0  0  0  0  0  0  0  0  0  0  0  0
  -85.6112   32.9826   -0.8253 C   0  0  0  0  0  0  0  0  0  0  0  0
  -84.4345   33.2979   -0.5248 O   0  0  0  0  0  0  0  0  0  0  0  0
  -86.4398   33.9057   -1.5840 N   0  0  0  0  0  0  0  0  0  0  0  0
  -87.6734   33.2342   -1.7362 C   0  0  0  0  0  0  0  0  0  0  0  0
  -88.6471   33.7282   -2.3455 O   0  0  0  0  0  0  0  0  0  0  0  0
  -87.6167   31.9308   -1.0916 C   0  0  0  0  0  0  0  0  0  0  0  0
  -88.5412   30.9031   -0.9551 C   0  0  0  0  0  0  0  0  0  0  0  0
  -89.8130   31.0157   -1.4965 C   0  0  0  0  0  0  0  0  0  0  0  0
  -86.9482   27.7261    1.1738 H   0  0  0  0  0  0  0  0  0  0  0  0
  -83.8993   26.4043    2.9744 H   0  0  0  0  0  0  0  0  0  0  0  0
  -86.1294   34.8365   -1.9098 H   0  0  0  0  0  0  0  0  0  0  0  0
  -92.0780   30.1661   -1.9590 C   0  0  0  0  0  0  0  0  0  0  0  0
  -93.0658   29.6144   -1.4214 O   0  0  0  0  0  0  0  0  0  0  0  0
  -92.1011   30.3481   -4.3978 C   0  0  0  0  0  0  0  0  0  0  0  0
  -92.2598   30.9239   -3.0929 O   0  0  0  0  0  0  0  0  0  0  0  0
 29 30  1  0  0  0
 30 27  1  0  0  0
 27 28  2  0  0  0
 27  1  1  0  0  0
  1  2  2  0  0  0
  2  3  1  0  0  0
  3  4  2  0  0  0
  4  5  1  0  0  0
  5  6  1  0  0  0
  6  7  1  0  0  0
  7  8  2  0  0  0
  8  9  1  0  0  0
  8 10  1  0  0  0
 10 11  2  0  0  0
 11 12  1  0  0  0
 12 13  2  0  0  0
 13 14  1  0  0  0
 14 15  1  0  0  0
 15 16  1  0  0  0
 16 17  2  0  0  0
 16 18  1  0  0  0
 18 19  1  0  0  0
 19 20  2  0  0  0
 19 21  1  0  0  0
 21 22  1  0  0  0
 22 23  2  0  0  0
 23  1  1  0  0  0
 22  4  1  0  0  0
 14  5  2  0  0  0
 21 15  2  0  0  0
 13  7  1  0  0  0
  6 24  1  0  0  0
  9 25  1  0  0  0
 18 26  1  0  0  0
M  END
> <minimizedAffinity>
-10.29876

> <CNNscore>
0.6249842048

> <CNNaffinity>
6.3811903000

> <CNN_VS>
3.9881432056

> <CNNaffinity_variance>
0.2852665782

$$$$
[H]Oc1c([H])c([H])c([H])c2c3c4c(c5c([H])c(C(=O)OC([H])([H])[H])c([H])c([H])c5c3n([H])c12)C(=O)N([H])C4=O


 30 34  0  0  0  0  0  0  0  0999 V2000
  -84.9886   31.5677    0.6944 C   0  0  0  0  0  0  0  0  0  0  0  0
  -84.3531   32.6086    0.0492 C   0  0  0  0  0  0  0  0  0  0  0  0
  -84.9575   33.2601   -1.0003 C   0  0  0  0  0  0  0  0  0  0  0  0
  -86.2173   32.8451   -1.3917 C   0  0  0  0  0  0  0  0  0  0  0  0
  -86.8470   33.4790   -2.4399 C   0  0  0  0  0  0  0  0  0  0  0  0
  -86.4313   34.5088   -3.2153 N   0  0  0  0  0  0  0  0  0  0  0  0
  -87.3736   34.8063   -4.1241 C   0  0  0  0  0  0  0  0  0  0  0  0
  -87.3622   35.7849   -5.1082 C   0  0  0  0  0  0  0  0  0  0  0  0
  -86.2576   36.6018   -5.2240 O   0  0  0  0  0  0  0  0  0  0  0  0
  -88.4577   35.9198   -5.9508 C   0  0  0  0  0  0  0  0  0  0  0  0
  -89.5323   35.0745   -5.7869 C   0  0  0  0  0  0  0  0  0  0  0  0
  -89.5145   34.1002   -4.7883 C   0  0  0  0  0  0  0  0  0  0  0  0
  -88.4486   33.9489   -3.9481 C   0  0  0  0  0  0  0  0  0  0  0  0
  -88.1035   33.1342   -2.9001 C   0  0  0  0  0  0  0  0  0  0  0  0
  -88.7759   32.0836   -2.2691 C   0  0  0  0  0  0  0  0  0  0  0  0
  -90.0548   31.4693   -2.4708 C   0  0  0  0  0  0  0  0  0  0  0  0
  -90.9467   31.7332   -3.3130 O   0  0  0  0  0  0  0  0  0  0  0  0
  -90.2557   30.3951   -1.5118 N   0  0  0  0  0  0  0  0  0  0  0  0
  -89.0739   30.3829   -0.7378 C   0  0  0  0  0  0  0  0  0  0  0  0
  -88.8823   29.5789    0.2003 O   0  0  0  0  0  0  0  0  0  0  0  0
  -88.1622   31.4189   -1.2000 C   0  0  0  0  0  0  0  0  0  0  0  0
  -86.8968   31.8166   -0.7876 C   0  0  0  0  0  0  0  0  0  0  0  0
  -86.2611   31.1796    0.2675 C   0  0  0  0  0  0  0  0  0  0  0  0
  -85.4954   34.9702   -3.0798 H   0  0  0  0  0  0  0  0  0  0  0  0
  -86.2581   37.3135   -5.9455 H   0  0  0  0  0  0  0  0  0  0  0  0
  -91.1046   29.8069   -1.4629 H   0  0  0  0  0  0  0  0  0  0  0  0
  -84.3686   30.8600    1.8110 C   0  0  0  0  0  0  0  0  0  0  0  0
  -85.0062   30.7274    2.8810 O   0  0  0  0  0  0  0  0  0  0  0  0
  -82.8260   28.9847    2.1024 C   0  0  0  0  0  0  0  0  0  0  0  0
  -83.0999   30.3375    1.7096 O   0  0  0  0  0  0  0  0  0  0  0  0
 29 30  1  0  0  0
 30 27  1  0  0  0
 27 28  2  0  0  0
 27  1  1  0  0  0
  1  2  2  0  0  0
  2  3  1  0  0  0
  3  4  2  0  0  0
  4  5  1  0  0  0
  5  6  1  0  0  0
  6  7  1  0  0  0
  7  8  2  0  0  0
  8  9  1  0  0  0
  8 10  1  0  0  0
 10 11  2  0  0  0
 11 12  1  0  0  0
 12 13  2  0  0  0
 13 14  1  0  0  0
 14 15  1  0  0  0
 15 16  1  0  0  0
 16 17  2  0  0  0
 16 18  1  0  0  0
 18 19  1  0  0  0
 19 20  2  0  0  0
 19 21  1  0  0  0
 21 22  1  0  0  0
 22 23  2  0  0  0
 23  1  1  0  0  0
 22  4  1  0  0  0
 14  5  2  0  0  0
 21 15  2  0  0  0
 13  7  1  0  0  0
  6 24  1  0  0  0
  9 25  1  0  0  0
 18 26  1  0  0  0
M  END
> <minimizedAffinity>
-9.63827

> <CNNscore>
0.5890082121

> <CNNaffinity>
5.8865938187

> <CNN_VS>
3.4672520161

> <CNNaffinity_variance>
0.1357553005

$$$$
[H]Oc1c([H])c([H])c([H])c2c3c4c(c5c([H])c(C(=O)OC([H])([H])[H])c([H])c([H])c5c3n([H])c12)C(=O)N([H])C4=O


 30 34  0  0  0  0  0  0  0  0999 V2000
  -88.7040   34.0910   -2.8445 C   0  0  0  0  0  0  0  0  0  0  0  0
  -87.4181   34.5552   -2.6589 C   0  0  0  0  0  0  0  0  0  0  0  0
  -86.5126   33.8401   -1.9107 C   0  0  0  0  0  0  0  0  0  0  0  0
  -86.9242   32.6449   -1.3497 C   0  0  0  0  0  0  0  0  0  0  0  0
  -86.0389   31.9073   -0.5952 C   0  0  0  0  0  0  0  0  0  0  0  0
  -84.7453   32.1528   -0.2775 N   0  0  0  0  0  0  0  0  0  0  0  0
  -84.2649   31.1575    0.4847 C   0  0  0  0  0  0  0  0  0  0  0  0
  -82.9970   31.0058    1.0286 C   0  0  0  0  0  0  0  0  0  0  0  0
  -82.0487   31.9782    0.7919 O   0  0  0  0  0  0  0  0  0  0  0  0
  -82.7121   29.8839    1.7957 C   0  0  0  0  0  0  0  0  0  0  0  0
  -83.7003   28.9464    1.9976 C   0  0  0  0  0  0  0  0  0  0  0  0
  -84.9655   29.1267    1.4376 C   0  0  0  0  0  0  0  0  0  0  0  0
  -85.2687   30.2216    0.6799 C   0  0  0  0  0  0  0  0  0  0  0  0
  -86.3598   30.7038    0.0031 C   0  0  0  0  0  0  0  0  0  0  0  0
  -87.6546   30.2041   -0.1643 C   0  0  0  0  0  0  0  0  0  0  0  0
  -88.3227   29.0231    0.2964 C   0  0  0  0  0  0  0  0  0  0  0  0
  -87.8909   28.0840    1.0078 O   0  0  0  0  0  0  0  0  0  0  0  0
  -89.6955   29.0005   -0.1820 N   0  0  0  0  0  0  0  0  0  0  0  0
  -89.8301   30.1886   -0.9345 C   0  0  0  0  0  0  0  0  0  0  0  0
  -90.8919   30.5149   -1.5083 O   0  0  0  0  0  0  0  0  0  0  0  0
  -88.5783   30.9308   -0.9261 C   0  0  0  0  0  0  0  0  0  0  0  0
  -88.1895   32.1344   -1.5002 C   0  0  0  0  0  0  0  0  0  0  0  0
  -89.0794   32.8786   -2.2602 C   0  0  0  0  0  0  0  0  0  0  0  0
  -84.2410   33.0151   -0.6080 H   0  0  0  0  0  0  0  0  0  0  0  0
  -81.1258   31.8590    1.1932 H   0  0  0  0  0  0  0  0  0  0  0  0
  -90.3729   28.2466    0.0222 H   0  0  0  0  0  0  0  0  0  0  0  0
  -89.6840   34.8312   -3.6342 C   0  0  0  0  0  0  0  0  0  0  0  0
  -89.6770   36.0834   -3.6004 O   0  0  0  0  0  0  0  0  0  0  0  0
  -90.2714   33.7000   -5.7215 C   0  0  0  0  0  0  0  0  0  0  0  0
  -90.6127   34.1801   -4.4129 O   0  0  0  0  0  0  0  0  0  0  0  0
 29 30  1  0  0  0
 30 27  1  0  0  0
 27 28  2  0  0  0
 27  1  1  0  0  0
  1  2  2  0  0  0
  2  3  1  0  0  0
  3  4  2  0  0  0
  4  5  1  0  0  0
  5  6  1  0  0  0
  6  7  1  0  0  0
  7  8  2  0  0  0
  8  9  1  0  0  0
  8 10  1  0  0  0
 10 11  2  0  0  0
 11 12  1  0  0  0
 12 13  2  0  0  0
 13 14  1  0  0  0
 14 15  1  0  0  0
 15 16  1  0  0  0
 16 17  2  0  0  0
 16 18  1  0  0  0
 18 19  1  0  0  0
 19 20  2  0  0  0
 19 21  1  0  0  0
 21 22  1  0  0  0
 22 23  2  0  0  0
 23  1  1  0  0  0
 22  4  1  0  0  0
 14  5  2  0  0  0
 21 15  2  0  0  0
 13  7  1  0  0  0
  6 24  1  0  0  0
  9 25  1  0  0  0
 18 26  1  0  0  0
M  END
> <minimizedAffinity>
-10.30994

> <CNNscore>
0.4305930138

> <CNNaffinity>
5.9076128006

> <CNN_VS>
2.5437767506

> <CNNaffinity_variance>
0.1362695992

$$$$
[H]Oc1c([H])c([H])c([H])c2c3c4c(c5c([H])c(C(=O)OC([H])([H])[H])c([H])c([H])c5c3n([H])c12)C(=O)N([H])C4=O


 30 34  0  0  0  0  0  0  0  0999 V2000
  -86.1440   32.0377   -0.4124 C   0  0  0  0  0  0  0  0  0  0  0  0
  -85.3053   32.9728   -0.9830 C   0  0  0  0  0  0  0  0  0  0  0  0
  -85.7092   33.7090   -2.0722 C   0  0  0  0  0  0  0  0  0  0  0  0
  -86.9764   33.4876   -2.5799 C   0  0  0  0  0  0  0  0  0  0  0  0
  -87.4079   34.2101   -3.6702 C   0  0  0  0  0  0  0  0  0  0  0  0
  -86.7756   35.1674   -4.3902 N   0  0  0  0  0  0  0  0  0  0  0  0
  -87.5776   35.6039   -5.3744 C   0  0  0  0  0  0  0  0  0  0  0  0
  -87.3323   36.5714   -6.3389 C   0  0  0  0  0  0  0  0  0  0  0  0
  -86.1126   37.2141   -6.3440 O   0  0  0  0  0  0  0  0  0  0  0  0
  -88.3152   36.8698   -7.2732 C   0  0  0  0  0  0  0  0  0  0  0  0
  -89.5139   36.1943   -7.2180 C   0  0  0  0  0  0  0  0  0  0  0  0
  -89.7311   35.2268   -6.2364 C   0  0  0  0  0  0  0  0  0  0  0  0
  -88.7796   34.9165   -5.3074 C   0  0  0  0  0  0  0  0  0  0  0  0
  -88.6551   34.0578   -4.2452 C   0  0  0  0  0  0  0  0  0  0  0  0
  -89.5304   33.1185   -3.6922 C   0  0  0  0  0  0  0  0  0  0  0  0
  -90.8630   32.7026   -4.0157 C   0  0  0  0  0  0  0  0  0  0  0  0
  -91.6263   33.0982   -4.9296 O   0  0  0  0  0  0  0  0  0  0  0  0
  -91.3069   31.6690   -3.0945 N   0  0  0  0  0  0  0  0  0  0  0  0
  -90.2145   31.4791   -2.2190 C   0  0  0  0  0  0  0  0  0  0  0  0
  -90.2298   30.6540   -1.2797 O   0  0  0  0  0  0  0  0  0  0  0  0
  -89.1211   32.3679   -2.5829 C   0  0  0  0  0  0  0  0  0  0  0  0
  -87.8528   32.5713   -2.0540 C   0  0  0  0  0  0  0  0  0  0  0  0
  -87.4165   31.8448   -0.9563 C   0  0  0  0  0  0  0  0  0  0  0  0
  -85.7975   35.4836   -4.1653 H   0  0  0  0  0  0  0  0  0  0  0  0
  -85.9423   37.9190   -7.0519 H   0  0  0  0  0  0  0  0  0  0  0  0
  -92.2347   31.2143   -3.1299 H   0  0  0  0  0  0  0  0  0  0  0  0
  -85.7391   31.2435    0.7440 C   0  0  0  0  0  0  0  0  0  0  0  0
  -86.2461   30.1111    0.9163 O   0  0  0  0  0  0  0  0  0  0  0  0
  -84.8989   31.3739    3.0372 C   0  0  0  0  0  0  0  0  0  0  0  0
  -84.8133   31.7152    1.6459 O   0  0  0  0  0  0  0  0  0  0  0  0
 29 30  1  0  0  0
 30 27  1  0  0  0
 27 28  2  0  0  0
 27  1  1  0  0  0
  1  2  2  0  0  0
  2  3  1  0  0  0
  3  4  2  0  0  0
  4  5  1  0  0  0
  5  6  1  0  0  0
  6  7  1  0  0  0
  7  8  2  0  0  0
  8  9  1  0  0  0
  8 10  1  0  0  0
 10 11  2  0  0  0
 11 12  1  0  0  0
 12 13  2  0  0  0
 13 14  1  0  0  0
 14 15  1  0  0  0
 15 16  1  0  0  0
 16 17  2  0  0  0
 16 18  1  0  0  0
 18 19  1  0  0  0
 19 20  2  0  0  0
 19 21  1  0  0  0
 21 22  1  0  0  0
 22 23  2  0  0  0
 23  1  1  0  0  0
 22  4  1  0  0  0
 14  5  2  0  0  0
 21 15  2  0  0  0
 13  7  1  0  0  0
  6 24  1  0  0  0
  9 25  1  0  0  0
 18 26  1  0  0  0
M  END
> <minimizedAffinity>
-8.64761

> <CNNscore>
0.4206252992

> <CNNaffinity>
5.4587988853

> <CNN_VS>
2.2961089611

> <CNNaffinity_variance>
0.1072041765

$$$$
[H]Oc1c([H])c([H])c([H])c2c3c4c(c5c([H])c(C(=O)OC([H])([H])[H])c([H])c([H])c5c3n([H])c12)C(=O)N([H])C4=O


 30 34  0  0  0  0  0  0  0  0999 V2000
  -89.2868   26.7344    1.7110 C   0  0  0  0  0  0  0  0  0  0  0  0
  -90.2532   27.4474    1.0319 C   0  0  0  0  0  0  0  0  0  0  0  0
  -89.9384   28.6183    0.3830 C   0  0  0  0  0  0  0  0  0  0  0  0
  -88.6294   29.0619    0.4288 C   0  0  0  0  0  0  0  0  0  0  0  0
  -88.2848   30.2314   -0.2119 C   0  0  0  0  0  0  0  0  0  0  0  0
  -89.0455   31.0907   -0.9314 N   0  0  0  0  0  0  0  0  0  0  0  0
  -88.2902   32.1073   -1.3766 C   0  0  0  0  0  0  0  0  0  0  0  0
  -88.6609   33.2013   -2.1460 C   0  0  0  0  0  0  0  0  0  0  0  0
  -89.9755   33.3226   -2.5436 O   0  0  0  0  0  0  0  0  0  0  0  0
  -87.7052   34.1455   -2.4971 C   0  0  0  0  0  0  0  0  0  0  0  0
  -86.4077   33.9706   -2.0704 C   0  0  0  0  0  0  0  0  0  0  0  0
  -86.0653   32.8603   -1.2978 C   0  0  0  0  0  0  0  0  0  0  0  0
  -86.9878   31.9190   -0.9403 C   0  0  0  0  0  0  0  0  0  0  0  0
  -87.0047   30.7516   -0.2206 C   0  0  0  0  0  0  0  0  0  0  0  0
  -86.0007   30.0547    0.4579 C   0  0  0  0  0  0  0  0  0  0  0  0
  -84.6008   30.2876    0.6568 C   0  0  0  0  0  0  0  0  0  0  0  0
  -83.8794   31.2299    0.2494 O   0  0  0  0  0  0  0  0  0  0  0  0
  -84.0209   29.2229    1.4593 N   0  0  0  0  0  0  0  0  0  0  0  0
  -85.1011   28.3544    1.7330 C   0  0  0  0  0  0  0  0  0  0  0  0
  -84.9809   27.3102    2.4100 O   0  0  0  0  0  0  0  0  0  0  0  0
  -86.3192   28.8620    1.1194 C   0  0  0  0  0  0  0  0  0  0  0  0
  -87.6271   28.3950    1.0883 C   0  0  0  0  0  0  0  0  0  0  0  0
  -87.9760   27.2177    1.7328 C   0  0  0  0  0  0  0  0  0  0  0  0
  -90.0743   30.9336   -1.0863 H   0  0  0  0  0  0  0  0  0  0  0  0
  -90.2371   34.1247   -3.1051 H   0  0  0  0  0  0  0  0  0  0  0  0
  -83.0253   29.1743    1.7337 H   0  0  0  0  0  0  0  0  0  0  0  0
  -89.5952   25.4889    2.4077 C   0  0  0  0  0  0  0  0  0  0  0  0
  -89.9919   24.5008    1.7479 O   0  0  0  0  0  0  0  0  0  0  0  0
  -90.3300   26.0974    4.6597 C   0  0  0  0  0  0  0  0  0  0  0  0
  -89.4587   25.3810    3.7725 O   0  0  0  0  0  0  0  0  0  0  0  0
 29 30  1  0  0  0
 30 27  1  0  0  0
 27 28  2  0  0  0
 27  1  1  0  0  0
  1  2  2  0  0  0
  2  3  1  0  0  0
  3  4  2  0  0  0
  4  5  1  0  0  0
  5  6  1  0  0  0
  6  7  1  0  0  0
  7  8  2  0  0  0
  8  9  1  0  0  0
  8 10  1  0  0  0
 10 11  2  0  0  0
 11 12  1  0  0  0
 12 13  2  0  0  0
 13 14  1  0  0  0
 14 15  1  0  0  0
 15 16  1  0  0  0
 16 17  2  0  0  0
 16 18  1  0  0  0
 18 19  1  0  0  0
 19 20  2  0  0  0
 19 21  1  0  0  0
 21 22  1  0  0  0
 22 23  2  0  0  0
 23  1  1  0  0  0
 22  4  1  0  0  0
 14  5  2  0  0  0
 21 15  2  0  0  0
 13  7  1  0  0  0
  6 24  1  0  0  0
  9 25  1  0  0  0
 18 26  1  0  0  0
M  END
> <minimizedAffinity>
-9.38502

> <CNNscore>
0.4136845767

> <CNNaffinity>
6.2291955948

> <CNN_VS>
2.5769221783

> <CNNaffinity_variance>
0.1185888499

$$$$
[H]Oc1c([H])c([H])c([H])c2c3c4c(c5c([H])c(C(=O)OC([H])([H])[H])c([H])c([H])c5c3n([H])c12)C(=O)N([H])C4=O


 30 34  0  0  0  0  0  0  0  0999 V2000
  -90.7697   27.3379   -0.5825 C   0  0  0  0  0  0  0  0  0  0  0  0
  -90.0011   26.4769    0.1733 C   0  0  0  0  0  0  0  0  0  0  0  0
  -88.7359   26.8333    0.5776 C   0  0  0  0  0  0  0  0  0  0  0  0
  -88.2548   28.0759    0.2072 C   0  0  0  0  0  0  0  0  0  0  0  0
  -86.9910   28.4599    0.5977 C   0  0  0  0  0  0  0  0  0  0  0  0
  -86.0640   27.7984    1.3309 N   0  0  0  0  0  0  0  0  0  0  0  0
  -84.9648   28.5564    1.4698 C   0  0  0  0  0  0  0  0  0  0  0  0
  -83.7836   28.2706    2.1403 C   0  0  0  0  0  0  0  0  0  0  0  0
  -83.6546   27.0536    2.7751 O   0  0  0  0  0  0  0  0  0  0  0  0
  -82.7624   29.2114    2.1573 C   0  0  0  0  0  0  0  0  0  0  0  0
  -82.9494   30.4096    1.5051 C   0  0  0  0  0  0  0  0  0  0  0  0
  -84.1482   30.6681    0.8396 C   0  0  0  0  0  0  0  0  0  0  0  0
  -85.1663   29.7585    0.8092 C   0  0  0  0  0  0  0  0  0  0  0  0
  -86.4273   29.6796    0.2755 C   0  0  0  0  0  0  0  0  0  0  0  0
  -87.1786   30.5764   -0.4896 C   0  0  0  0  0  0  0  0  0  0  0  0
  -86.9250   31.8920   -0.9978 C   0  0  0  0  0  0  0  0  0  0  0  0
  -85.9061   32.6145   -0.8785 O   0  0  0  0  0  0  0  0  0  0  0  0
  -88.0742   32.3742   -1.7467 N   0  0  0  0  0  0  0  0  0  0  0  0
  -89.0138   31.3217   -1.6739 C   0  0  0  0  0  0  0  0  0  0  0  0
  -90.1416   31.3771   -2.2109 O   0  0  0  0  0  0  0  0  0  0  0  0
  -88.4674   30.2153   -0.9023 C   0  0  0  0  0  0  0  0  0  0  0  0
  -88.9737   28.9727   -0.5433 C   0  0  0  0  0  0  0  0  0  0  0  0
  -90.2458   28.5842   -0.9355 C   0  0  0  0  0  0  0  0  0  0  0  0
  -86.2351   26.8322    1.7110 H   0  0  0  0  0  0  0  0  0  0  0  0
  -82.7886   26.8535    3.2620 H   0  0  0  0  0  0  0  0  0  0  0  0
  -88.1253   33.2983   -2.2074 H   0  0  0  0  0  0  0  0  0  0  0  0
  -92.1155   26.9833   -1.0242 C   0  0  0  0  0  0  0  0  0  0  0  0
  -92.6407   25.9284   -0.5996 O   0  0  0  0  0  0  0  0  0  0  0  0
  -93.7656   27.2228   -2.8135 C   0  0  0  0  0  0  0  0  0  0  0  0
  -92.8156   27.7847   -1.8963 O   0  0  0  0  0  0  0  0  0  0  0  0
 29 30  1  0  0  0
 30 27  1  0  0  0
 27 28  2  0  0  0
 27  1  1  0  0  0
  1  2  2  0  0  0
  2  3  1  0  0  0
  3  4  2  0  0  0
  4  5  1  0  0  0
  5  6  1  0  0  0
  6  7  1  0  0  0
  7  8  2  0  0  0
  8  9  1  0  0  0
  8 10  1  0  0  0
 10 11  2  0  0  0
 11 12  1  0  0  0
 12 13  2  0  0  0
 13 14  1  0  0  0
 14 15  1  0  0  0
 15 16  1  0  0  0
 16 17  2  0  0  0
 16 18  1  0  0  0
 18 19  1  0  0  0
 19 20  2  0  0  0
 19 21  1  0  0  0
 21 22  1  0  0  0
 22 23  2  0  0  0
 23  1  1  0  0  0
 22  4  1  0  0  0
 14  5  2  0  0  0
 21 15  2  0  0  0
 13  7  1  0  0  0
  6 24  1  0  0  0
  9 25  1  0  0  0
 18 26  1  0  0  0
M  END
> <minimizedAffinity>
-9.42713

> <CNNscore>
0.2693333030

> <CNNaffinity>
6.0600109100

> <CNN_VS>
1.6321628094

> <CNNaffinity_variance>
0.2455353439

$$$$
[H]Oc1c([H])c([H])c([H])c2c3c4c(c5c([H])c(C(=O)OC([H])([H])[H])c([H])c([H])c5c3n([H])c12)C(=O)N([H])C4=O


 30 34  0  0  0  0  0  0  0  0999 V2000
  -89.6874   26.5413    0.8003 C   0  0  0  0  0  0  0  0  0  0  0  0
  -88.4988   26.1149    1.3562 C   0  0  0  0  0  0  0  0  0  0  0  0
  -87.3901   26.9284    1.3569 C   0  0  0  0  0  0  0  0  0  0  0  0
  -87.4975   28.1837    0.7866 C   0  0  0  0  0  0  0  0  0  0  0  0
  -86.4034   29.0203    0.7728 C   0  0  0  0  0  0  0  0  0  0  0  0
  -85.1501   28.8280    1.2490 N   0  0  0  0  0  0  0  0  0  0  0  0
  -84.4011   29.9180    1.0184 C   0  0  0  0  0  0  0  0  0  0  0  0
  -83.0703   30.1490    1.3381 C   0  0  0  0  0  0  0  0  0  0  0  0
  -82.3582   29.1610    1.9843 O   0  0  0  0  0  0  0  0  0  0  0  0
  -82.4875   31.3637    1.0020 C   0  0  0  0  0  0  0  0  0  0  0  0
  -83.2492   32.3123    0.3569 C   0  0  0  0  0  0  0  0  0  0  0  0
  -84.5847   32.0509    0.0488 C   0  0  0  0  0  0  0  0  0  0  0  0
  -85.1792   30.8641    0.3693 C   0  0  0  0  0  0  0  0  0  0  0  0
  -86.4163   30.2893    0.2262 C   0  0  0  0  0  0  0  0  0  0  0  0
  -87.6045   30.7533   -0.3457 C   0  0  0  0  0  0  0  0  0  0  0  0
  -87.9768   31.9796   -0.9869 C   0  0  0  0  0  0  0  0  0  0  0  0
  -87.2921   33.0068   -1.2109 O   0  0  0  0  0  0  0  0  0  0  0  0
  -89.3691   31.9292   -1.4030 N   0  0  0  0  0  0  0  0  0  0  0  0
  -89.8160   30.6518   -0.9974 C   0  0  0  0  0  0  0  0  0  0  0  0
  -90.9826   30.2454   -1.1903 O   0  0  0  0  0  0  0  0  0  0  0  0
  -88.7348   29.9263   -0.3474 C   0  0  0  0  0  0  0  0  0  0  0  0
  -88.6529   28.6608    0.2193 C   0  0  0  0  0  0  0  0  0  0  0  0
  -89.7533   27.8170    0.2342 C   0  0  0  0  0  0  0  0  0  0  0  0
  -84.8613   27.9336    1.7221 H   0  0  0  0  0  0  0  0  0  0  0  0
  -81.3872   29.3384    2.2136 H   0  0  0  0  0  0  0  0  0  0  0  0
  -89.8623   32.6983   -1.8869 H   0  0  0  0  0  0  0  0  0  0  0  0
  -90.8784   25.6969    0.7869 C   0  0  0  0  0  0  0  0  0  0  0  0
  -91.9023   26.0928    0.1835 O   0  0  0  0  0  0  0  0  0  0  0  0
  -92.0245   23.5982    1.3004 C   0  0  0  0  0  0  0  0  0  0  0  0
  -90.8969   24.4773    1.4235 O   0  0  0  0  0  0  0  0  0  0  0  0
 29 30  1  0  0  0
 30 27  1  0  0  0
 27 28  2  0  0  0
 27  1  1  0  0  0
  1  2  2  0  0  0
  2  3  1  0  0  0
  3  4  2  0  0  0
  4  5  1  0  0  0
  5  6  1  0  0  0
  6  7  1  0  0  0
  7  8  2  0  0  0
  8  9  1  0  0  0
  8 10  1  0  0  0
 10 11  2  0  0  0
 11 12  1  0  0  0
 12 13  2  0  0  0
 13 14  1  0  0  0
 14 15  1  0  0  0
 15 16  1  0  0  0
 16 17  2  0  0  0
 16 18  1  0  0  0
 18 19  1  0  0  0
 19 20  2  0  0  0
 19 21  1  0  0  0
 21 22  1  0  0  0
 22 23  2  0  0  0
 23  1  1  0  0  0
 22  4  1  0  0  0
 14  5  2  0  0  0
 21 15  2  0  0  0
 13  7  1  0  0  0
  6 24  1  0  0  0
  9 25  1  0  0  0
 18 26  1  0  0  0
M  END
> <minimizedAffinity>
-9.82422

> <CNNscore>
0.2573430538

> <CNNaffinity>
6.0131273270

> <CNN_VS>
1.5474365950

> <CNNaffinity_variance>
0.2294377387

$$$$
[H]c1c([H])c(C([H])([H])N2C([H])([H])C([H])([H])N(C([H])([H])C([H])([H])[H])C([H])([H])C2([H])[H])c(Cl)c([H])c1SC1=C(C([H])([H])[H])C2=C3N([H])C(=O)C(=c4c(C([H])([H])[H])c(C([H])([H])[H])sc4=N1)C23[H]


 36 41  0  0  0  0  0  0  0  0999 V2000
  -88.7852   29.8356   -0.3045 C   0  0  0  0  0  0  0  0  0  0  0  0
  -87.6349   30.6755   -0.2549 N   0  0  0  0  0  0  0  0  0  0  0  0
  -86.4381   30.7445    0.2447 C   0  0  0  0  0  0  0  0  0  0  0  0
  -85.5043   32.1367   -0.1380 S   0  0  0  0  0  0  0  0  0  0  0  0
  -84.0473   31.6319    0.5668 C   0  0  0  0  0  0  0  0  0  0  0  0
  -82.7248   32.3771    0.6393 C   0  0  0  0  0  0  0  0  0  0  0  0
  -84.2628   30.3552    1.1209 C   0  0  0  0  0  0  0  0  0  0  0  0
  -83.0410   29.5558    1.5259 C   0  0  0  0  0  0  0  0  0  0  0  0
  -85.5380   29.9320    0.9468 C   0  0  0  0  0  0  0  0  0  0  0  0
  -85.8512   28.8666    1.6305 C   0  0  0  0  0  0  0  0  0  0  0  0
  -85.0355   27.9816    2.3929 C   0  0  0  0  0  0  0  0  0  0  0  0
  -84.2220   28.3984    3.1509 O   0  0  0  0  0  0  0  0  0  0  0  0
  -85.5272   26.6282    1.9679 N   0  0  0  0  0  0  0  0  0  0  0  0
  -86.5675   26.9704    0.9974 C   0  0  0  0  0  0  0  0  0  0  0  0
  -87.6594   27.7421    0.5958 C   0  0  0  0  0  0  0  0  0  0  0  0
  -87.1964   28.0979    1.8599 C   0  0  0  0  0  0  0  0  0  0  0  0
  -88.7963   28.4681   -0.0303 C   0  0  0  0  0  0  0  0  0  0  0  0
  -89.8698   27.6529   -0.5034 C   0  0  0  0  0  0  0  0  0  0  0  0
  -85.1423   25.8086    2.3258 H   0  0  0  0  0  0  0  0  0  0  0  0
  -90.2370   30.4353   -1.0152 S   0  0  0  0  0  0  0  0  0  0  0  0
  -89.3497   33.5538   -4.2873 C   0  0  0  0  0  0  0  0  0  0  0  0
  -90.2622   32.5359   -4.4663 C   0  0  0  0  0  0  0  0  0  0  0  0
  -90.5484   31.6137   -3.4882 C   0  0  0  0  0  0  0  0  0  0  0  0
  -89.9059   31.6792   -2.2429 C   0  0  0  0  0  0  0  0  0  0  0  0
  -89.0018   32.7092   -2.1018 C   0  0  0  0  0  0  0  0  0  0  0  0
  -88.6948   33.6404   -3.0513 C   0  0  0  0  0  0  0  0  0  0  0  0
  -87.5135   34.9246   -2.7573 Cl  0  0  0  0  0  0  0  0  0  0  0  0
  -89.0413   34.5830   -5.2765 C   0  0  0  0  0  0  0  0  0  0  0  0
  -91.0870   38.1982   -5.5988 N   0  0  0  0  0  0  0  0  0  0  0  0
  -89.7420   38.0504   -6.0639 C   0  0  0  0  0  0  0  0  0  0  0  0
  -88.9822   36.9611   -5.3907 C   0  0  0  0  0  0  0  0  0  0  0  0
  -89.8336   35.7810   -5.0858 N   0  0  0  0  0  0  0  0  0  0  0  0
  -90.9283   35.8129   -6.0746 C   0  0  0  0  0  0  0  0  0  0  0  0
  -91.8567   36.9699   -5.7724 C   0  0  0  0  0  0  0  0  0  0  0  0
  -92.5135   38.1543   -3.6901 C   0  0  0  0  0  0  0  0  0  0  0  0
  -91.2329   38.7289   -4.2792 C   0  0  0  0  0  0  0  0  0  0  0  0
 35 36  1  0  0  0
 36 29  1  0  0  0
 29 30  1  0  0  0
 30 31  1  0  0  0
 31 32  1  0  0  0
 32 28  1  0  0  0
 28 21  1  0  0  0
 21 22  2  0  0  0
 22 23  1  0  0  0
 23 24  2  0  0  0
 24 20  1  0  0  0
 20  1  1  0  0  0
  1  2  1  0  0  0
  2  3  2  0  0  0
  3  4  1  0  0  0
  4  5  1  0  0  0
  5  6  1  0  0  0
  5  7  2  0  0  0
  7  8  1  0  0  0
  7  9  1  0  0  0
  9 10  2  0  0  0
 10 11  1  0  0  0
 11 12  2  0  0  0
 11 13  1  0  0  0
 13 14  1  0  0  0
 14 15  2  0  0  0
 15 16  1  0  0  0
 15 17  1  0  0  0
 17 18  1  0  0  0
 24 25  1  0  0  0
 25 26  2  0  0  0
 26 27  1  0  0  0
 32 33  1  0  0  0
 33 34  1  0  0  0
 34 29  1  0  0  0
 26 21  1  0  0  0
 17  1  2  0  0  0
  9  3  1  0  0  0
 16 10  1  0  0  0
 16 14  1  0  0  0
 13 19  1  0  0  0
M  END
> <minimizedAffinity>
-8.89479

> <CNNscore>
0.6070050597

> <CNNaffinity>
7.5503602028

> <CNN_VS>
4.5831069946

> <CNNaffinity_variance>
0.3016608059

$$$$
[H]c1c([H])c(C([H])([H])N2C([H])([H])C([H])([H])N(C([H])([H])C([H])([H])[H])C([H])([H])C2([H])[H])c(Cl)c([H])c1SC1=C(C([H])([H])[H])C2=C3N([H])C(=O)C(=c4c(C([H])([H])[H])c(C([H])([H])[H])sc4=N1)C23[H]


 36 41  0  0  0  0  0  0  0  0999 V2000
  -85.5818   32.0138   -0.3477 C   0  0  0  0  0  0  0  0  0  0  0  0
  -86.8182   31.3051   -0.3540 N   0  0  0  0  0  0  0  0  0  0  0  0
  -87.3625   30.1920    0.0351 C   0  0  0  0  0  0  0  0  0  0  0  0
  -89.0329   29.9705   -0.3076 S   0  0  0  0  0  0  0  0  0  0  0  0
  -89.2501   28.5258    0.5528 C   0  0  0  0  0  0  0  0  0  0  0  0
  -90.5136   27.6942    0.6992 C   0  0  0  0  0  0  0  0  0  0  0  0
  -88.0115   28.1838    1.1292 C   0  0  0  0  0  0  0  0  0  0  0  0
  -88.0137   27.1140    2.2022 C   0  0  0  0  0  0  0  0  0  0  0  0
  -87.0400   29.0754    0.8176 C   0  0  0  0  0  0  0  0  0  0  0  0
  -85.8343   28.6918    1.1329 C   0  0  0  0  0  0  0  0  0  0  0  0
  -85.3866   27.5756    1.8969 C   0  0  0  0  0  0  0  0  0  0  0  0
  -85.8342   26.4906    1.7161 O   0  0  0  0  0  0  0  0  0  0  0  0
  -84.3451   28.1824    2.7919 N   0  0  0  0  0  0  0  0  0  0  0  0
  -84.3747   29.5885    2.3879 C   0  0  0  0  0  0  0  0  0  0  0  0
  -84.4288   30.5775    1.4041 C   0  0  0  0  0  0  0  0  0  0  0  0
  -84.4137   29.2942    0.8639 C   0  0  0  0  0  0  0  0  0  0  0  0
  -84.5197   31.7727    0.5237 C   0  0  0  0  0  0  0  0  0  0  0  0
  -83.5244   32.7759    0.7324 C   0  0  0  0  0  0  0  0  0  0  0  0
  -83.8585   27.6491    3.4451 H   0  0  0  0  0  0  0  0  0  0  0  0
  -85.4353   33.4620   -1.2716 S   0  0  0  0  0  0  0  0  0  0  0  0
  -88.7346   33.7757   -4.4710 C   0  0  0  0  0  0  0  0  0  0  0  0
  -88.3198   34.8618   -3.7300 C   0  0  0  0  0  0  0  0  0  0  0  0
  -87.3220   34.7818   -2.7883 C   0  0  0  0  0  0  0  0  0  0  0  0
  -86.6749   33.5615   -2.5436 C   0  0  0  0  0  0  0  0  0  0  0  0
  -87.1162   32.4999   -3.3029 C   0  0  0  0  0  0  0  0  0  0  0  0
  -88.1030   32.5451   -4.2448 C   0  0  0  0  0  0  0  0  0  0  0  0
  -88.5878   31.1129   -5.1640 Cl  0  0  0  0  0  0  0  0  0  0  0  0
  -89.7582   33.8160   -5.5119 C   0  0  0  0  0  0  0  0  0  0  0  0
  -92.9166   36.5301   -5.6410 N   0  0  0  0  0  0  0  0  0  0  0  0
  -92.1293   36.2358   -6.7989 C   0  0  0  0  0  0  0  0  0  0  0  0
  -90.7584   35.7421   -6.4926 C   0  0  0  0  0  0  0  0  0  0  0  0
  -90.7257   34.8711   -5.2880 N   0  0  0  0  0  0  0  0  0  0  0  0
  -92.0771   34.2886   -5.1802 C   0  0  0  0  0  0  0  0  0  0  0  0
  -93.0660   35.3621   -4.7780 C   0  0  0  0  0  0  0  0  0  0  0  0
  -92.7693   37.3952   -3.4252 C   0  0  0  0  0  0  0  0  0  0  0  0
  -92.5209   37.6861   -4.8986 C   0  0  0  0  0  0  0  0  0  0  0  0
 35 36  1  0  0  0
 36 29  1  0  0  0
 29 30  1  0  0  0
 30 31  1  0  0  0
 31 32  1  0  0  0
 32 28  1  0  0  0
 28 21  1  0  0  0
 21 22  2  0  0  0
 22 23  1  0  0  0
 23 24  2  0  0  0
 24 20  1  0  0  0
 20  1  1  0  0  0
  1  2  1  0  0  0
  2  3  2  0  0  0
  3  4  1  0  0  0
  4  5  1  0  0  0
  5  6  1  0  0  0
  5  7  2  0  0  0
  7  8  1  0  0  0
  7  9  1  0  0  0
  9 10  2  0  0  0
 10 11  1  0  0  0
 11 12  2  0  0  0
 11 13  1  0  0  0
 13 14  1  0  0  0
 14 15  2  0  0  0
 15 16  1  0  0  0
 15 17  1  0  0  0
 17 18  1  0  0  0
 24 25  1  0  0  0
 25 26  2  0  0  0
 26 27  1  0  0  0
 32 33  1  0  0  0
 33 34  1  0  0  0
 34 29  1  0  0  0
 26 21  1  0  0  0
 17  1  2  0  0  0
  9  3  1  0  0  0
 16 10  1  0  0  0
 16 14  1  0  0  0
 13 19  1  0  0  0
M  END
> <minimizedAffinity>
-8.72220

> <CNNscore>
0.5305523872

> <CNNaffinity>
7.4654059410

> <CNN_VS>
3.9607889652

> <CNNaffinity_variance>
0.1622065455

$$$$
[H]c1c([H])c(C([H])([H])N2C([H])([H])C([H])([H])N(C([H])([H])C([H])([H])[H])C([H])([H])C2([H])[H])c(Cl)c([H])c1SC1=C(C([H])([H])[H])C2=C3N([H])C(=O)C(=c4c(C([H])([H])[H])c(C([H])([H])[H])sc4=N1)C23[H]


 36 41  0  0  0  0  0  0  0  0999 V2000
  -88.5572   30.5018   -0.5292 C   0  0  0  0  0  0  0  0  0  0  0  0
  -87.3135   31.1773   -0.3624 N   0  0  0  0  0  0  0  0  0  0  0  0
  -86.1544   31.0620    0.2120 C   0  0  0  0  0  0  0  0  0  0  0  0
  -85.0238   32.3340   -0.0339 S   0  0  0  0  0  0  0  0  0  0  0  0
  -83.6959   31.6060    0.7285 C   0  0  0  0  0  0  0  0  0  0  0  0
  -82.2958   32.1637    0.9232 C   0  0  0  0  0  0  0  0  0  0  0  0
  -84.1126   30.3444    1.1954 C   0  0  0  0  0  0  0  0  0  0  0  0
  -83.0354   29.3706    1.6281 C   0  0  0  0  0  0  0  0  0  0  0  0
  -85.4173   30.1039    0.9205 C   0  0  0  0  0  0  0  0  0  0  0  0
  -85.9119   29.0582    1.5226 C   0  0  0  0  0  0  0  0  0  0  0  0
  -85.2717   28.0367    2.2819 C   0  0  0  0  0  0  0  0  0  0  0  0
  -84.4641   28.3044    3.1103 O   0  0  0  0  0  0  0  0  0  0  0  0
  -85.9054   26.7830    1.7521 N   0  0  0  0  0  0  0  0  0  0  0  0
  -86.8242   27.3072    0.7410 C   0  0  0  0  0  0  0  0  0  0  0  0
  -87.7768   28.2360    0.3181 C   0  0  0  0  0  0  0  0  0  0  0  0
  -87.3580   28.4658    1.6261 C   0  0  0  0  0  0  0  0  0  0  0  0
  -88.7646   29.1364   -0.3339 C   0  0  0  0  0  0  0  0  0  0  0  0
  -89.9005   28.4954   -0.9167 C   0  0  0  0  0  0  0  0  0  0  0  0
  -85.6554   25.9031    2.0857 H   0  0  0  0  0  0  0  0  0  0  0  0
  -89.8672   31.3232   -1.2918 S   0  0  0  0  0  0  0  0  0  0  0  0
  -88.4000   34.3382   -4.4503 C   0  0  0  0  0  0  0  0  0  0  0  0
  -87.7506   34.1544   -3.2481 C   0  0  0  0  0  0  0  0  0  0  0  0
  -88.1692   33.2424   -2.3089 C   0  0  0  0  0  0  0  0  0  0  0  0
  -89.2996   32.4471   -2.5483 C   0  0  0  0  0  0  0  0  0  0  0  0
  -89.9213   32.6591   -3.7595 C   0  0  0  0  0  0  0  0  0  0  0  0
  -89.5323   33.5550   -4.7128 C   0  0  0  0  0  0  0  0  0  0  0  0
  -90.4100   33.7413   -6.2379 Cl  0  0  0  0  0  0  0  0  0  0  0  0
  -87.9726   35.2611   -5.4984 C   0  0  0  0  0  0  0  0  0  0  0  0
  -87.5171   39.3732   -5.0066 N   0  0  0  0  0  0  0  0  0  0  0  0
  -86.4860   38.5652   -5.5821 C   0  0  0  0  0  0  0  0  0  0  0  0
  -86.5370   37.1338   -5.1754 C   0  0  0  0  0  0  0  0  0  0  0  0
  -87.9302   36.6335   -5.0359 N   0  0  0  0  0  0  0  0  0  0  0  0
  -88.7489   37.4806   -5.9243 C   0  0  0  0  0  0  0  0  0  0  0  0
  -88.8467   38.8783   -5.3507 C   0  0  0  0  0  0  0  0  0  0  0  0
  -88.8033   39.7233   -3.0310 C   0  0  0  0  0  0  0  0  0  0  0  0
  -87.3966   39.6279   -3.6049 C   0  0  0  0  0  0  0  0  0  0  0  0
 35 36  1  0  0  0
 36 29  1  0  0  0
 29 30  1  0  0  0
 30 31  1  0  0  0
 31 32  1  0  0  0
 32 28  1  0  0  0
 28 21  1  0  0  0
 21 22  2  0  0  0
 22 23  1  0  0  0
 23 24  2  0  0  0
 24 20  1  0  0  0
 20  1  1  0  0  0
  1  2  1  0  0  0
  2  3  2  0  0  0
  3  4  1  0  0  0
  4  5  1  0  0  0
  5  6  1  0  0  0
  5  7  2  0  0  0
  7  8  1  0  0  0
  7  9  1  0  0  0
  9 10  2  0  0  0
 10 11  1  0  0  0
 11 12  2  0  0  0
 11 13  1  0  0  0
 13 14  1  0  0  0
 14 15  2  0  0  0
 15 16  1  0  0  0
 15 17  1  0  0  0
 17 18  1  0  0  0
 24 25  1  0  0  0
 25 26  2  0  0  0
 26 27  1  0  0  0
 32 33  1  0  0  0
 33 34  1  0  0  0
 34 29  1  0  0  0
 26 21  1  0  0  0
 17  1  2  0  0  0
  9  3  1  0  0  0
 16 10  1  0  0  0
 16 14  1  0  0  0
 13 19  1  0  0  0
M  END
> <minimizedAffinity>
-9.35863

> <CNNscore>
0.5200756192

> <CNNaffinity>
7.5610480309

> <CNN_VS>
3.9323167801

> <CNNaffinity_variance>
0.4942664504

$$$$
[H]c1c([H])c(C([H])([H])N2C([H])([H])C([H])([H])N(C([H])([H])C([H])([H])[H])C([H])([H])C2([H])[H])c(Cl)c([H])c1SC1=C(C([H])([H])[H])C2=C3N([H])C(=O)C(=c4c(C([H])([H])[H])c(C([H])([H])[H])sc4=N1)C23[H]


 36 41  0  0  0  0  0  0  0  0999 V2000
  -85.2889   28.8336    1.3755 C   0  0  0  0  0  0  0  0  0  0  0  0
  -86.3065   29.2815    0.4840 N   0  0  0  0  0  0  0  0  0  0  0  0
  -86.6717   30.3105   -0.2193 C   0  0  0  0  0  0  0  0  0  0  0  0
  -88.1048   30.1549   -1.1567 S   0  0  0  0  0  0  0  0  0  0  0  0
  -87.9983   31.6338   -1.9789 C   0  0  0  0  0  0  0  0  0  0  0  0
  -88.9579   32.2167   -3.0030 C   0  0  0  0  0  0  0  0  0  0  0  0
  -86.8318   32.2851   -1.5333 C   0  0  0  0  0  0  0  0  0  0  0  0
  -86.3435   33.4705   -2.3408 C   0  0  0  0  0  0  0  0  0  0  0  0
  -86.1722   31.5647   -0.5942 C   0  0  0  0  0  0  0  0  0  0  0  0
  -85.2179   32.2142    0.0124 C   0  0  0  0  0  0  0  0  0  0  0  0
  -84.6453   33.4898   -0.2615 C   0  0  0  0  0  0  0  0  0  0  0  0
  -85.3305   34.4323   -0.4905 O   0  0  0  0  0  0  0  0  0  0  0  0
  -83.1723   33.2246   -0.1429 N   0  0  0  0  0  0  0  0  0  0  0  0
  -83.1424   31.7976    0.1799 C   0  0  0  0  0  0  0  0  0  0  0  0
  -83.6266   30.6919    0.8813 C   0  0  0  0  0  0  0  0  0  0  0  0
  -84.2888   31.8677    1.2247 C   0  0  0  0  0  0  0  0  0  0  0  0
  -84.0165   29.3929    1.4915 C   0  0  0  0  0  0  0  0  0  0  0  0
  -82.9557   28.6398    2.0817 C   0  0  0  0  0  0  0  0  0  0  0  0
  -82.5130   33.9263   -0.2874 H   0  0  0  0  0  0  0  0  0  0  0  0
  -85.4870   27.3289    2.1934 S   0  0  0  0  0  0  0  0  0  0  0  0
  -89.5115   25.4151    1.0274 C   0  0  0  0  0  0  0  0  0  0  0  0
  -88.4856   25.5848    0.1223 C   0  0  0  0  0  0  0  0  0  0  0  0
  -87.2743   26.1357    0.4662 C   0  0  0  0  0  0  0  0  0  0  0  0
  -87.0347   26.5537    1.7837 C   0  0  0  0  0  0  0  0  0  0  0  0
  -88.0825   26.3679    2.6588 C   0  0  0  0  0  0  0  0  0  0  0  0
  -89.2962   25.8249    2.3503 C   0  0  0  0  0  0  0  0  0  0  0  0
  -90.5723   25.6331    3.5610 Cl  0  0  0  0  0  0  0  0  0  0  0  0
  -90.7997   24.7972    0.7243 C   0  0  0  0  0  0  0  0  0  0  0  0
  -91.1041   20.6476    0.5092 N   0  0  0  0  0  0  0  0  0  0  0  0
  -92.1737   21.5032    0.0954 C   0  0  0  0  0  0  0  0  0  0  0  0
  -92.1635   22.8449    0.7410 C   0  0  0  0  0  0  0  0  0  0  0  0
  -90.7857   23.3653    0.9448 N   0  0  0  0  0  0  0  0  0  0  0  0
  -89.9565   22.7137   -0.0871 C   0  0  0  0  0  0  0  0  0  0  0  0
  -89.7994   21.2431    0.2365 C   0  0  0  0  0  0  0  0  0  0  0  0
  -89.7802   20.1519    2.4278 C   0  0  0  0  0  0  0  0  0  0  0  0
  -91.1876   20.1525    1.8479 C   0  0  0  0  0  0  0  0  0  0  0  0
 35 36  1  0  0  0
 36 29  1  0  0  0
 29 30  1  0  0  0
 30 31  1  0  0  0
 31 32  1  0  0  0
 32 28  1  0  0  0
 28 21  1  0  0  0
 21 22  2  0  0  0
 22 23  1  0  0  0
 23 24  2  0  0  0
 24 20  1  0  0  0
 20  1  1  0  0  0
  1  2  1  0  0  0
  2  3  2  0  0  0
  3  4  1  0  0  0
  4  5  1  0  0  0
  5  6  1  0  0  0
  5  7  2  0  0  0
  7  8  1  0  0  0
  7  9  1  0  0  0
  9 10  2  0  0  0
 10 11  1  0  0  0
 11 12  2  0  0  0
 11 13  1  0  0  0
 13 14  1  0  0  0
 14 15  2  0  0  0
 15 16  1  0  0  0
 15 17  1  0  0  0
 17 18  1  0  0  0
 24 25  1  0  0  0
 25 26  2  0  0  0
 26 27  1  0  0  0
 32 33  1  0  0  0
 33 34  1  0  0  0
 34 29  1  0  0  0
 26 21  1  0  0  0
 17  1  2  0  0  0
  9  3  1  0  0  0
 16 10  1  0  0  0
 16 14  1  0  0  0
 13 19  1  0  0  0
M  END
> <minimizedAffinity>
-10.08783

> <CNNscore>
0.3751592338

> <CNNaffinity>
7.4439172745

> <CNN_VS>
2.7926542759

> <CNNaffinity_variance>
0.2975150347

$$$$
[H]c1c([H])c(C([H])([H])N2C([H])([H])C([H])([H])N(C([H])([H])C([H])([H])[H])C([H])([H])C2([H])[H])c(Cl)c([H])c1SC1=C(C([H])([H])[H])C2=C3N([H])C(=O)C(=c4c(C([H])([H])[H])c(C([H])([H])[H])sc4=N1)C23[H]


 36 41  0  0  0  0  0  0  0  0999 V2000
  -85.9983   31.9883   -0.7283 C   0  0  0  0  0  0  0  0  0  0  0  0
  -87.2139   31.2564   -0.5957 N   0  0  0  0  0  0  0  0  0  0  0  0
  -87.7002   30.1604   -0.0965 C   0  0  0  0  0  0  0  0  0  0  0  0
  -89.3855   29.8841   -0.2966 S   0  0  0  0  0  0  0  0  0  0  0  0
  -89.5024   28.4946    0.6679 C   0  0  0  0  0  0  0  0  0  0  0  0
  -90.7307   27.6496    0.9623 C   0  0  0  0  0  0  0  0  0  0  0  0
  -88.2163   28.2155    1.1692 C   0  0  0  0  0  0  0  0  0  0  0  0
  -88.1123   27.2183    2.3052 C   0  0  0  0  0  0  0  0  0  0  0  0
  -87.2930   29.1039    0.7288 C   0  0  0  0  0  0  0  0  0  0  0  0
  -86.0580   28.7656    0.9755 C   0  0  0  0  0  0  0  0  0  0  0  0
  -85.5274   27.7108    1.7727 C   0  0  0  0  0  0  0  0  0  0  0  0
  -85.9604   26.6077    1.6958 O   0  0  0  0  0  0  0  0  0  0  0  0
  -84.4374   28.3952    2.5457 N   0  0  0  0  0  0  0  0  0  0  0  0
  -84.5317   29.7710    2.0565 C   0  0  0  0  0  0  0  0  0  0  0  0
  -84.6831   30.6925    1.0188 C   0  0  0  0  0  0  0  0  0  0  0  0
  -84.6767   29.3771    0.5617 C   0  0  0  0  0  0  0  0  0  0  0  0
  -84.8687   31.8256    0.0736 C   0  0  0  0  0  0  0  0  0  0  0  0
  -83.8856   32.8598    0.1419 C   0  0  0  0  0  0  0  0  0  0  0  0
  -83.8905   27.9153    3.1928 H   0  0  0  0  0  0  0  0  0  0  0  0
  -85.9567   33.3757   -1.7509 S   0  0  0  0  0  0  0  0  0  0  0  0
  -89.9250   33.9322   -4.0230 C   0  0  0  0  0  0  0  0  0  0  0  0
  -89.2198   34.9946   -3.4988 C   0  0  0  0  0  0  0  0  0  0  0  0
  -88.0247   34.8398   -2.8377 C   0  0  0  0  0  0  0  0  0  0  0  0
  -87.4678   33.5632   -2.6705 C   0  0  0  0  0  0  0  0  0  0  0  0
  -88.2007   32.5275   -3.2077 C   0  0  0  0  0  0  0  0  0  0  0  0
  -89.3888   32.6465   -3.8690 C   0  0  0  0  0  0  0  0  0  0  0  0
  -90.2439   31.2410   -4.5202 Cl  0  0  0  0  0  0  0  0  0  0  0  0
  -91.1748   34.0461   -4.7700 C   0  0  0  0  0  0  0  0  0  0  0  0
  -91.6790   36.3022   -8.2362 N   0  0  0  0  0  0  0  0  0  0  0  0
  -92.1268   34.9461   -8.1490 C   0  0  0  0  0  0  0  0  0  0  0  0
  -91.3984   34.1290   -7.1397 C   0  0  0  0  0  0  0  0  0  0  0  0
  -91.0455   34.9109   -5.9253 N   0  0  0  0  0  0  0  0  0  0  0  0
  -92.0427   35.9955   -5.8455 C   0  0  0  0  0  0  0  0  0  0  0  0
  -91.8013   36.9949   -6.9569 C   0  0  0  0  0  0  0  0  0  0  0  0
  -89.7849   37.7482   -8.2004 C   0  0  0  0  0  0  0  0  0  0  0  0
  -90.3865   36.4932   -8.8169 C   0  0  0  0  0  0  0  0  0  0  0  0
 35 36  1  0  0  0
 36 29  1  0  0  0
 29 30  1  0  0  0
 30 31  1  0  0  0
 31 32  1  0  0  0
 32 28  1  0  0  0
 28 21  1  0  0  0
 21 22  2  0  0  0
 22 23  1  0  0  0
 23 24  2  0  0  0
 24 20  1  0  0  0
 20  1  1  0  0  0
  1  2  1  0  0  0
  2  3  2  0  0  0
  3  4  1  0  0  0
  4  5  1  0  0  0
  5  6  1  0  0  0
  5  7  2  0  0  0
  7  8  1  0  0  0
  7  9  1  0  0  0
  9 10  2  0  0  0
 10 11  1  0  0  0
 11 12  2  0  0  0
 11 13  1  0  0  0
 13 14  1  0  0  0
 14 15  2  0  0  0
 15 16  1  0  0  0
 15 17  1  0  0  0
 17 18  1  0  0  0
 24 25  1  0  0  0
 25 26  2  0  0  0
 26 27  1  0  0  0
 32 33  1  0  0  0
 33 34  1  0  0  0
 34 29  1  0  0  0
 26 21  1  0  0  0
 17  1  2  0  0  0
  9  3  1  0  0  0
 16 10  1  0  0  0
 16 14  1  0  0  0
 13 19  1  0  0  0
M  END
> <minimizedAffinity>
-8.51766

> <CNNscore>
0.3493007720

> <CNNaffinity>
7.1330137253

> <CNN_VS>
2.4915671349

> <CNNaffinity_variance>
0.2152729779

$$$$
[H]c1c([H])c(C([H])([H])N2C([H])([H])C([H])([H])N(C([H])([H])C([H])([H])[H])C([H])([H])C2([H])[H])c(Cl)c([H])c1SC1=C(C([H])([H])[H])C2=C3N([H])C(=O)C(=c4c(C([H])([H])[H])c(C([H])([H])[H])sc4=N1)C23[H]


 36 41  0  0  0  0  0  0  0  0999 V2000
  -85.2993   28.8023    1.3058 C   0  0  0  0  0  0  0  0  0  0  0  0
  -86.3028   29.2073    0.3785 N   0  0  0  0  0  0  0  0  0  0  0  0
  -86.6842   30.2193   -0.3406 C   0  0  0  0  0  0  0  0  0  0  0  0
  -88.0773   30.0047   -1.3256 S   0  0  0  0  0  0  0  0  0  0  0  0
  -88.0014   31.4847   -2.1492 C   0  0  0  0  0  0  0  0  0  0  0  0
  -88.9478   32.0265   -3.2075 C   0  0  0  0  0  0  0  0  0  0  0  0
  -86.8774   32.1828   -1.6667 C   0  0  0  0  0  0  0  0  0  0  0  0
  -86.4092   33.3847   -2.4617 C   0  0  0  0  0  0  0  0  0  0  0  0
  -86.2223   31.4914   -0.7031 C   0  0  0  0  0  0  0  0  0  0  0  0
  -85.3157   32.1797   -0.0668 C   0  0  0  0  0  0  0  0  0  0  0  0
  -84.7850   33.4763   -0.3259 C   0  0  0  0  0  0  0  0  0  0  0  0
  -85.4987   34.3903   -0.5816 O   0  0  0  0  0  0  0  0  0  0  0  0
  -83.3076   33.2701   -0.1563 N   0  0  0  0  0  0  0  0  0  0  0  0
  -83.2323   31.8462    0.1727 C   0  0  0  0  0  0  0  0  0  0  0  0
  -83.6959   30.7238    0.8613 C   0  0  0  0  0  0  0  0  0  0  0  0
  -84.4154   31.8733    1.1776 C   0  0  0  0  0  0  0  0  0  0  0  0
  -84.0547   29.4119    1.4628 C   0  0  0  0  0  0  0  0  0  0  0  0
  -82.9857   28.7029    2.0916 C   0  0  0  0  0  0  0  0  0  0  0  0
  -82.6720   33.9971   -0.2810 H   0  0  0  0  0  0  0  0  0  0  0  0
  -85.4655   27.2929    2.1222 S   0  0  0  0  0  0  0  0  0  0  0  0
  -89.5448   25.3980    1.1283 C   0  0  0  0  0  0  0  0  0  0  0  0
  -88.5334   25.5024    0.1973 C   0  0  0  0  0  0  0  0  0  0  0  0
  -87.3062   26.0472    0.4907 C   0  0  0  0  0  0  0  0  0  0  0  0
  -87.0342   26.5270    1.7806 C   0  0  0  0  0  0  0  0  0  0  0  0
  -88.0683   26.4053    2.6828 C   0  0  0  0  0  0  0  0  0  0  0  0
  -89.2971   25.8702    2.4245 C   0  0  0  0  0  0  0  0  0  0  0  0
  -90.5531   25.7639    3.6663 Cl  0  0  0  0  0  0  0  0  0  0  0  0
  -90.8492   24.7897    0.8805 C   0  0  0  0  0  0  0  0  0  0  0  0
  -93.2697   26.2587   -2.1759 N   0  0  0  0  0  0  0  0  0  0  0  0
  -93.7546   25.3081   -1.2228 C   0  0  0  0  0  0  0  0  0  0  0  0
  -92.6895   24.4759   -0.5983 C   0  0  0  0  0  0  0  0  0  0  0  0
  -91.4362   25.2410   -0.3649 N   0  0  0  0  0  0  0  0  0  0  0  0
  -91.8486   26.6518   -0.2350 C   0  0  0  0  0  0  0  0  0  0  0  0
  -92.3043   27.1772   -1.5797 C   0  0  0  0  0  0  0  0  0  0  0  0
  -91.7581   26.6839   -3.9687 C   0  0  0  0  0  0  0  0  0  0  0  0
  -92.7872   25.7134   -3.4064 C   0  0  0  0  0  0  0  0  0  0  0  0
 35 36  1  0  0  0
 36 29  1  0  0  0
 29 30  1  0  0  0
 30 31  1  0  0  0
 31 32  1  0  0  0
 32 28  1  0  0  0
 28 21  1  0  0  0
 21 22  2  0  0  0
 22 23  1  0  0  0
 23 24  2  0  0  0
 24 20  1  0  0  0
 20  1  1  0  0  0
  1  2  1  0  0  0
  2  3  2  0  0  0
  3  4  1  0  0  0
  4  5  1  0  0  0
  5  6  1  0  0  0
  5  7  2  0  0  0
  7  8  1  0  0  0
  7  9  1  0  0  0
  9 10  2  0  0  0
 10 11  1  0  0  0
 11 12  2  0  0  0
 11 13  1  0  0  0
 13 14  1  0  0  0
 14 15  2  0  0  0
 15 16  1  0  0  0
 15 17  1  0  0  0
 17 18  1  0  0  0
 24 25  1  0  0  0
 25 26  2  0  0  0
 26 27  1  0  0  0
 32 33  1  0  0  0
 33 34  1  0  0  0
 34 29  1  0  0  0
 26 21  1  0  0  0
 17  1  2  0  0  0
  9  3  1  0  0  0
 16 10  1  0  0  0
 16 14  1  0  0  0
 13 19  1  0  0  0
M  END
> <minimizedAffinity>
-9.64443

> <CNNscore>
0.3418497741

> <CNNaffinity>
7.5282440186

> <CNN_VS>
2.5735285282

> <CNNaffinity_variance>
0.3304145634

$$$$
[H]c1c([H])c(C([H])([H])N2C([H])([H])C([H])([H])N(C([H])([H])C([H])([H])[H])C([H])([H])C2([H])[H])c(Cl)c([H])c1SC1=C(C([H])([H])[H])C2=C3N([H])C(=O)C(=c4c(C([H])([H])[H])c(C([H])([H])[H])sc4=N1)C23[H]


 36 41  0  0  0  0  0  0  0  0999 V2000
  -87.1225   31.7357   -1.8090 C   0  0  0  0  0  0  0  0  0  0  0  0
  -87.2998   30.4774   -1.1640 N   0  0  0  0  0  0  0  0  0  0  0  0
  -86.7399   29.6779   -0.3072 C   0  0  0  0  0  0  0  0  0  0  0  0
  -87.5657   28.2153    0.0610 S   0  0  0  0  0  0  0  0  0  0  0  0
  -86.5467   27.6891    1.3098 C   0  0  0  0  0  0  0  0  0  0  0  0
  -86.6429   26.4165    2.1348 C   0  0  0  0  0  0  0  0  0  0  0  0
  -85.5316   28.6529    1.4650 C   0  0  0  0  0  0  0  0  0  0  0  0
  -84.6840   28.5769    2.7186 C   0  0  0  0  0  0  0  0  0  0  0  0
  -85.6580   29.6738    0.5832 C   0  0  0  0  0  0  0  0  0  0  0  0
  -84.6281   30.4719    0.5303 C   0  0  0  0  0  0  0  0  0  0  0  0
  -83.4712   30.5484    1.3583 C   0  0  0  0  0  0  0  0  0  0  0  0
  -82.8726   29.5701    1.6662 O   0  0  0  0  0  0  0  0  0  0  0  0
  -83.3345   32.0236    1.6018 N   0  0  0  0  0  0  0  0  0  0  0  0
  -84.4735   32.5641    0.8591 C   0  0  0  0  0  0  0  0  0  0  0  0
  -85.2910   32.5983   -0.2720 C   0  0  0  0  0  0  0  0  0  0  0  0
  -84.2537   31.6777   -0.3965 C   0  0  0  0  0  0  0  0  0  0  0  0
  -86.2958   32.7636   -1.3559 C   0  0  0  0  0  0  0  0  0  0  0  0
  -86.4999   34.1006   -1.8161 C   0  0  0  0  0  0  0  0  0  0  0  0
  -82.6192   32.3867    2.1536 H   0  0  0  0  0  0  0  0  0  0  0  0
  -88.1865   32.1842   -3.0893 S   0  0  0  0  0  0  0  0  0  0  0  0
  -92.3742   30.3145   -2.6573 C   0  0  0  0  0  0  0  0  0  0  0  0
  -92.0650   31.2077   -3.6609 C   0  0  0  0  0  0  0  0  0  0  0  0
  -90.8128   31.7544   -3.8098 C   0  0  0  0  0  0  0  0  0  0  0  0
  -89.7806   31.4126   -2.9235 C   0  0  0  0  0  0  0  0  0  0  0  0
  -90.1274   30.5179   -1.9348 C   0  0  0  0  0  0  0  0  0  0  0  0
  -91.3594   29.9571   -1.7591 C   0  0  0  0  0  0  0  0  0  0  0  0
  -91.6909   28.8142   -0.4496 Cl  0  0  0  0  0  0  0  0  0  0  0  0
  -93.6742   29.6729   -2.4810 C   0  0  0  0  0  0  0  0  0  0  0  0
  -95.0340   26.4078   -4.6830 N   0  0  0  0  0  0  0  0  0  0  0  0
  -95.2417   26.5021   -3.2705 C   0  0  0  0  0  0  0  0  0  0  0  0
  -94.2524   27.3641   -2.5667 C   0  0  0  0  0  0  0  0  0  0  0  0
  -93.8552   28.5472   -3.3750 N   0  0  0  0  0  0  0  0  0  0  0  0
  -94.9904   28.8113   -4.2798 C   0  0  0  0  0  0  0  0  0  0  0  0
  -95.0770   27.7187   -5.3241 C   0  0  0  0  0  0  0  0  0  0  0  0
  -94.0247   25.3855   -6.5846 C   0  0  0  0  0  0  0  0  0  0  0  0
  -93.8876   25.6584   -5.0933 C   0  0  0  0  0  0  0  0  0  0  0  0
 35 36  1  0  0  0
 36 29  1  0  0  0
 29 30  1  0  0  0
 30 31  1  0  0  0
 31 32  1  0  0  0
 32 28  1  0  0  0
 28 21  1  0  0  0
 21 22  2  0  0  0
 22 23  1  0  0  0
 23 24  2  0  0  0
 24 20  1  0  0  0
 20  1  1  0  0  0
  1  2  1  0  0  0
  2  3  2  0  0  0
  3  4  1  0  0  0
  4  5  1  0  0  0
  5  6  1  0  0  0
  5  7  2  0  0  0
  7  8  1  0  0  0
  7  9  1  0  0  0
  9 10  2  0  0  0
 10 11  1  0  0  0
 11 12  2  0  0  0
 11 13  1  0  0  0
 13 14  1  0  0  0
 14 15  2  0  0  0
 15 16  1  0  0  0
 15 17  1  0  0  0
 17 18  1  0  0  0
 24 25  1  0  0  0
 25 26  2  0  0  0
 26 27  1  0  0  0
 32 33  1  0  0  0
 33 34  1  0  0  0
 34 29  1  0  0  0
 26 21  1  0  0  0
 17  1  2  0  0  0
  9  3  1  0  0  0
 16 10  1  0  0  0
 16 14  1  0  0  0
 13 19  1  0  0  0
M  END
> <minimizedAffinity>
-8.27522

> <CNNscore>
0.3351866007

> <CNNaffinity>
7.1467409134

> <CNN_VS>
2.3954918385

> <CNNaffinity_variance>
0.2023477852

$$$$
[H]c1c([H])c(C([H])([H])N2C([H])([H])C([H])([H])N(C([H])([H])C([H])([H])[H])C([H])([H])C2([H])[H])c(Cl)c([H])c1SC1=C(C([H])([H])[H])C2=C3N([H])C(=O)C(=c4c(C([H])([H])[H])c(C([H])([H])[H])sc4=N1)C23[H]


 36 41  0  0  0  0  0  0  0  0999 V2000
  -88.4956   30.8866   -0.8600 C   0  0  0  0  0  0  0  0  0  0  0  0
  -87.6660   30.0117   -0.1002 N   0  0  0  0  0  0  0  0  0  0  0  0
  -86.4495   29.8733    0.3329 C   0  0  0  0  0  0  0  0  0  0  0  0
  -86.1063   28.4838    1.2859 S   0  0  0  0  0  0  0  0  0  0  0  0
  -84.5209   28.8958    1.7229 C   0  0  0  0  0  0  0  0  0  0  0  0
  -83.5419   28.1088    2.5782 C   0  0  0  0  0  0  0  0  0  0  0  0
  -84.2245   30.1372    1.1274 C   0  0  0  0  0  0  0  0  0  0  0  0
  -82.9936   30.8705    1.6202 C   0  0  0  0  0  0  0  0  0  0  0  0
  -85.2582   30.6088    0.3893 C   0  0  0  0  0  0  0  0  0  0  0  0
  -84.9622   31.6334   -0.3611 C   0  0  0  0  0  0  0  0  0  0  0  0
  -83.7884   32.4395   -0.4082 C   0  0  0  0  0  0  0  0  0  0  0  0
  -82.7075   31.9478   -0.4127 O   0  0  0  0  0  0  0  0  0  0  0  0
  -84.3448   33.8328   -0.4647 N   0  0  0  0  0  0  0  0  0  0  0  0
  -85.7873   33.5889   -0.4306 C   0  0  0  0  0  0  0  0  0  0  0  0
  -86.9177   32.8792   -0.8397 C   0  0  0  0  0  0  0  0  0  0  0  0
  -85.7552   32.4238   -1.4564 C   0  0  0  0  0  0  0  0  0  0  0  0
  -88.2282   32.2317   -1.1138 C   0  0  0  0  0  0  0  0  0  0  0  0
  -89.2849   33.1088   -1.5073 C   0  0  0  0  0  0  0  0  0  0  0  0
  -83.7649   34.6142   -0.4981 H   0  0  0  0  0  0  0  0  0  0  0  0
  -90.0876   30.3802   -1.2863 S   0  0  0  0  0  0  0  0  0  0  0  0
  -90.8763   26.1019    0.2282 C   0  0  0  0  0  0  0  0  0  0  0  0
  -91.2672   27.2187    0.9356 C   0  0  0  0  0  0  0  0  0  0  0  0
  -91.0547   28.4984    0.4816 C   0  0  0  0  0  0  0  0  0  0  0  0
  -90.4171   28.7168   -0.7487 C   0  0  0  0  0  0  0  0  0  0  0  0
  -90.0416   27.5775   -1.4263 C   0  0  0  0  0  0  0  0  0  0  0  0
  -90.2374   26.2942   -1.0044 C   0  0  0  0  0  0  0  0  0  0  0  0
  -89.7122   24.9022   -1.9622 Cl  0  0  0  0  0  0  0  0  0  0  0  0
  -91.1160   24.7227    0.6445 C   0  0  0  0  0  0  0  0  0  0  0  0
  -94.2798   22.6763   -1.1335 N   0  0  0  0  0  0  0  0  0  0  0  0
  -93.7210   22.2593    0.1159 C   0  0  0  0  0  0  0  0  0  0  0  0
  -92.3101   22.6872    0.3239 C   0  0  0  0  0  0  0  0  0  0  0  0
  -92.0386   24.0369   -0.2374 N   0  0  0  0  0  0  0  0  0  0  0  0
  -93.3371   24.7377   -0.2370 C   0  0  0  0  0  0  0  0  0  0  0  0
  -94.2474   24.1283   -1.2821 C   0  0  0  0  0  0  0  0  0  0  0  0
  -94.0813   20.5335   -2.1575 C   0  0  0  0  0  0  0  0  0  0  0  0
  -93.7674   22.0168   -2.2939 C   0  0  0  0  0  0  0  0  0  0  0  0
 35 36  1  0  0  0
 36 29  1  0  0  0
 29 30  1  0  0  0
 30 31  1  0  0  0
 31 32  1  0  0  0
 32 28  1  0  0  0
 28 21  1  0  0  0
 21 22  2  0  0  0
 22 23  1  0  0  0
 23 24  2  0  0  0
 24 20  1  0  0  0
 20  1  1  0  0  0
  1  2  1  0  0  0
  2  3  2  0  0  0
  3  4  1  0  0  0
  4  5  1  0  0  0
  5  6  1  0  0  0
  5  7  2  0  0  0
  7  8  1  0  0  0
  7  9  1  0  0  0
  9 10  2  0  0  0
 10 11  1  0  0  0
 11 12  2  0  0  0
 11 13  1  0  0  0
 13 14  1  0  0  0
 14 15  2  0  0  0
 15 16  1  0  0  0
 15 17  1  0  0  0
 17 18  1  0  0  0
 24 25  1  0  0  0
 25 26  2  0  0  0
 26 27  1  0  0  0
 32 33  1  0  0  0
 33 34  1  0  0  0
 34 29  1  0  0  0
 26 21  1  0  0  0
 17  1  2  0  0  0
  9  3  1  0  0  0
 16 10  1  0  0  0
 16 14  1  0  0  0
 13 19  1  0  0  0
M  END
> <minimizedAffinity>
-8.94268

> <CNNscore>
0.1972197294

> <CNNaffinity>
7.0597290993

> <CNN_VS>
1.3923178911

> <CNNaffinity_variance>
0.2677633464

$$$$
[H]c1c([H])c(C([H])([H])N2C([H])([H])C([H])([H])N(C([H])([H])C([H])([H])[H])C([H])([H])C2([H])[H])c(Cl)c([H])c1SC1=C(C([H])([H])[H])C2=C3N([H])C(=O)C(=c4c(C([H])([H])[H])c(C([H])([H])[H])sc4=N1)C23[H]


 36 41  0  0  0  0  0  0  0  0999 V2000
  -86.5212   31.7361   -0.3536 C   0  0  0  0  0  0  0  0  0  0  0  0
  -87.8049   31.1525   -0.5598 N   0  0  0  0  0  0  0  0  0  0  0  0
  -88.4449   30.0264   -0.4656 C   0  0  0  0  0  0  0  0  0  0  0  0
  -90.1115   30.0302   -0.8891 S   0  0  0  0  0  0  0  0  0  0  0  0
  -90.4694   28.4434   -0.4111 C   0  0  0  0  0  0  0  0  0  0  0  0
  -91.7954   27.7064   -0.4998 C   0  0  0  0  0  0  0  0  0  0  0  0
  -89.2841   27.8733    0.0923 C   0  0  0  0  0  0  0  0  0  0  0  0
  -89.4090   26.5805    0.8725 C   0  0  0  0  0  0  0  0  0  0  0  0
  -88.2378   28.7318    0.0288 C   0  0  0  0  0  0  0  0  0  0  0  0
  -87.0775   28.1871    0.2682 C   0  0  0  0  0  0  0  0  0  0  0  0
  -86.7449   26.8873    0.7475 C   0  0  0  0  0  0  0  0  0  0  0  0
  -87.2629   25.9178    0.2982 O   0  0  0  0  0  0  0  0  0  0  0  0
  -85.6996   27.1742    1.7863 N   0  0  0  0  0  0  0  0  0  0  0  0
  -85.6094   28.6338    1.7360 C   0  0  0  0  0  0  0  0  0  0  0  0
  -85.5501   29.8317    1.0215 C   0  0  0  0  0  0  0  0  0  0  0  0
  -85.6067   28.7193    0.1857 C   0  0  0  0  0  0  0  0  0  0  0  0
  -85.5166   31.2069    0.4565 C   0  0  0  0  0  0  0  0  0  0  0  0
  -84.4600   32.0463    0.9252 C   0  0  0  0  0  0  0  0  0  0  0  0
  -85.2808   26.4616    2.3009 H   0  0  0  0  0  0  0  0  0  0  0  0
  -86.2309   33.3474   -0.8939 S   0  0  0  0  0  0  0  0  0  0  0  0
  -89.2276   34.4663   -4.2086 C   0  0  0  0  0  0  0  0  0  0  0  0
  -89.6036   33.7741   -3.0772 C   0  0  0  0  0  0  0  0  0  0  0  0
  -88.7206   33.4543   -2.0736 C   0  0  0  0  0  0  0  0  0  0  0  0
  -87.3729   33.8317   -2.1689 C   0  0  0  0  0  0  0  0  0  0  0  0
  -87.0354   34.5216   -3.3128 C   0  0  0  0  0  0  0  0  0  0  0  0
  -87.8862   34.8548   -4.3268 C   0  0  0  0  0  0  0  0  0  0  0  0
  -87.3398   35.7472   -5.7537 Cl  0  0  0  0  0  0  0  0  0  0  0  0
  -90.1330   34.8679   -5.2819 C   0  0  0  0  0  0  0  0  0  0  0  0
  -91.9486   38.5369   -4.5068 N   0  0  0  0  0  0  0  0  0  0  0  0
  -90.5691   38.3018   -4.2085 C   0  0  0  0  0  0  0  0  0  0  0  0
  -90.2295   36.8683   -3.9929 C   0  0  0  0  0  0  0  0  0  0  0  0
  -90.9964   35.9631   -4.8890 N   0  0  0  0  0  0  0  0  0  0  0  0
  -91.3397   36.7722   -6.0742 C   0  0  0  0  0  0  0  0  0  0  0  0
  -92.3742   37.8127   -5.7008 C   0  0  0  0  0  0  0  0  0  0  0  0
  -93.4251   39.7082   -3.0481 C   0  0  0  0  0  0  0  0  0  0  0  0
  -92.8599   38.3452   -3.4219 C   0  0  0  0  0  0  0  0  0  0  0  0
 35 36  1  0  0  0
 36 29  1  0  0  0
 29 30  1  0  0  0
 30 31  1  0  0  0
 31 32  1  0  0  0
 32 28  1  0  0  0
 28 21  1  0  0  0
 21 22  2  0  0  0
 22 23  1  0  0  0
 23 24  2  0  0  0
 24 20  1  0  0  0
 20  1  1  0  0  0
  1  2  1  0  0  0
  2  3  2  0  0  0
  3  4  1  0  0  0
  4  5  1  0  0  0
  5  6  1  0  0  0
  5  7  2  0  0  0
  7  8  1  0  0  0
  7  9  1  0  0  0
  9 10  2  0  0  0
 10 11  1  0  0  0
 11 12  2  0  0  0
 11 13  1  0  0  0
 13 14  1  0  0  0
 14 15  2  0  0  0
 15 16  1  0  0  0
 15 17  1  0  0  0
 17 18  1  0  0  0
 24 25  1  0  0  0
 25 26  2  0  0  0
 26 27  1  0  0  0
 32 33  1  0  0  0
 33 34  1  0  0  0
 34 29  1  0  0  0
 26 21  1  0  0  0
 17  1  2  0  0  0
  9  3  1  0  0  0
 16 10  1  0  0  0
 16 14  1  0  0  0
 13 19  1  0  0  0
M  END
> <minimizedAffinity>
-8.25709

> <CNNscore>
0.1610072106

> <CNNaffinity>
6.9825944901

> <CNN_VS>
1.1242480278

> <CNNaffinity_variance>
0.2198600769

$$$$
[H]c1c([H])c([H])c2c(c1[H])c1c3c(c4c5c([H])c([H])c([H])c([H])c5n5c4c1n2[C@@]1([H])O[C@]5(C([H])([H])[H])[C@@]([H])(OC([H])([H])[H])[C@@]([H])(N([H])C([H])([H])[H])C1([H])[H])C([H])([H])N([H])C3=O


 37 44  0  0  0  0  0  0  0  0999 V2000
  -88.1855   25.9693   -0.1464 C   0  0  0  0  0  0  0  0  0  0  0  0
  -87.1306   26.4856    0.7424 C   0  0  0  0  0  0  0  0  0  0  0  0
  -87.5406   27.6169    1.6271 C   0  0  0  0  0  0  0  0  0  0  0  0
  -88.8074   27.9025    1.7650 O   0  0  0  0  0  0  0  0  0  0  0  0
  -89.7549   27.7392    0.7809 C   0  0  0  0  0  0  0  0  0  0  0  0
  -91.0483   27.7442    1.6219 C   0  0  0  0  0  0  0  0  0  0  0  0
  -89.5935   26.4228    0.1679 C   0  0  0  0  0  0  0  0  0  0  0  0
  -89.7079   28.8952   -0.0988 N   0  0  0  0  0  0  0  0  0  0  0  0
  -90.6811   29.4021   -0.8623 C   0  0  0  0  0  0  0  0  0  0  0  0
  -91.9654   29.0072   -1.0900 C   0  0  0  0  0  0  0  0  0  0  0  0
  -92.7801   29.7287   -1.9497 C   0  0  0  0  0  0  0  0  0  0  0  0
  -92.3513   30.8563   -2.6065 C   0  0  0  0  0  0  0  0  0  0  0  0
  -91.0374   31.2721   -2.3827 C   0  0  0  0  0  0  0  0  0  0  0  0
  -90.2531   30.5367   -1.5249 C   0  0  0  0  0  0  0  0  0  0  0  0
  -88.9379   30.7345   -1.1439 C   0  0  0  0  0  0  0  0  0  0  0  0
  -87.9883   31.6962   -1.4600 C   0  0  0  0  0  0  0  0  0  0  0  0
  -88.1089   32.8716   -2.3752 C   0  0  0  0  0  0  0  0  0  0  0  0
  -86.8393   33.5372   -2.3149 N   0  0  0  0  0  0  0  0  0  0  0  0
  -85.9657   32.8218   -1.4453 C   0  0  0  0  0  0  0  0  0  0  0  0
  -84.8075   33.1954   -1.2438 O   0  0  0  0  0  0  0  0  0  0  0  0
  -86.7131   31.6874   -0.9338 C   0  0  0  0  0  0  0  0  0  0  0  0
  -86.4236   30.6561   -0.0648 C   0  0  0  0  0  0  0  0  0  0  0  0
  -85.2952   30.2959    0.6409 C   0  0  0  0  0  0  0  0  0  0  0  0
  -84.0417   30.8253    0.7605 C   0  0  0  0  0  0  0  0  0  0  0  0
  -83.1197   30.1846    1.5873 C   0  0  0  0  0  0  0  0  0  0  0  0
  -83.4196   29.0381    2.2901 C   0  0  0  0  0  0  0  0  0  0  0  0
  -84.6860   28.5050    2.1676 C   0  0  0  0  0  0  0  0  0  0  0  0
  -85.5848   29.1286    1.3624 C   0  0  0  0  0  0  0  0  0  0  0  0
  -86.8509   28.8044    1.0929 N   0  0  0  0  0  0  0  0  0  0  0  0
  -87.3720   29.6986    0.2480 C   0  0  0  0  0  0  0  0  0  0  0  0
  -88.6430   29.7356   -0.2929 C   0  0  0  0  0  0  0  0  0  0  0  0
  -86.6027   34.4272   -2.8445 H   0  0  0  0  0  0  0  0  0  0  0  0
  -86.6321   26.9423   -1.5989 C   0  0  0  0  0  0  0  0  0  0  0  0
  -87.9132   26.2680   -1.5586 N   0  0  0  0  0  0  0  0  0  0  0  0
  -87.8403   25.4272   -2.1385 H   0  0  0  0  0  0  0  0  0  0  0  0
  -90.3044   26.1510   -0.9906 O   0  0  0  0  0  0  0  0  0  0  0  0
  -91.2256   25.1456   -0.8985 C   0  0  0  0  0  0  0  0  0  0  0  0
 33 34  1  0  0  0
 34  1  1  0  0  0
  1  2  1  0  0  0
  2  3  1  0  0  0
  3  4  1  0  0  0
  4  5  1  0  0  0
  5  6  1  0  0  0
  5  7  1  0  0  0
  7 36  1  0  0  0
 36 37  1  0  0  0
  5  8  1  0  0  0
  8  9  1  0  0  0
  9 10  2  0  0  0
 10 11  1  0  0  0
 11 12  2  0  0  0
 12 13  1  0  0  0
 13 14  2  0  0  0
 14 15  1  0  0  0
 15 16  2  0  0  0
 16 17  1  0  0  0
 17 18  1  0  0  0
 18 19  1  0  0  0
 19 20  2  0  0  0
 19 21  1  0  0  0
 21 22  2  0  0  0
 22 23  1  0  0  0
 23 24  2  0  0  0
 24 25  1  0  0  0
 25 26  2  0  0  0
 26 27  1  0  0  0
 27 28  2  0  0  0
 28 29  1  0  0  0
 29 30  1  0  0  0
 30 31  2  0  0  0
  7  1  1  0  0  0
 31  8  1  0  0  0
 29  3  1  0  0  0
 14  9  1  0  0  0
 31 15  1  0  0  0
 21 16  1  0  0  0
 30 22  1  0  0  0
 28 23  1  0  0  0
 34 35  1  0  0  0
 18 32  1  0  0  0
M  END
> <minimizedAffinity>
-10.88776

> <CNNscore>
0.4939234257

> <CNNaffinity>
6.9002966881

> <CNN_VS>
3.4082181454

> <CNNaffinity_variance>
0.1545022726

$$$$
[H]c1c([H])c([H])c2c(c1[H])c1c3c(c4c5c([H])c([H])c([H])c([H])c5n5c4c1n2[C@@]1([H])O[C@]5(C([H])([H])[H])[C@@]([H])(OC([H])([H])[H])[C@@]([H])(N([H])C([H])([H])[H])C1([H])[H])C([H])([H])N([H])C3=O


 37 44  0  0  0  0  0  0  0  0999 V2000
  -88.3905   27.3909   -1.3457 C   0  0  0  0  0  0  0  0  0  0  0  0
  -87.5705   27.1197   -0.1527 C   0  0  0  0  0  0  0  0  0  0  0  0
  -87.7299   28.0973    0.9652 C   0  0  0  0  0  0  0  0  0  0  0  0
  -88.7267   28.9407    0.9484 O   0  0  0  0  0  0  0  0  0  0  0  0
  -89.2761   29.4754   -0.1941 C   0  0  0  0  0  0  0  0  0  0  0  0
  -90.6431   29.9522    0.3390 C   0  0  0  0  0  0  0  0  0  0  0  0
  -89.4937   28.4103   -1.1702 C   0  0  0  0  0  0  0  0  0  0  0  0
  -88.4625   30.6056   -0.6099 N   0  0  0  0  0  0  0  0  0  0  0  0
  -88.8235   31.6731   -1.3291 C   0  0  0  0  0  0  0  0  0  0  0  0
  -90.0024   32.0261   -1.9146 C   0  0  0  0  0  0  0  0  0  0  0  0
  -90.1075   33.2152   -2.6207 C   0  0  0  0  0  0  0  0  0  0  0  0
  -89.0556   34.0860   -2.7681 C   0  0  0  0  0  0  0  0  0  0  0  0
  -87.8416   33.7366   -2.1736 C   0  0  0  0  0  0  0  0  0  0  0  0
  -87.7674   32.5514   -1.4796 C   0  0  0  0  0  0  0  0  0  0  0  0
  -86.6954   31.9855   -0.8128 C   0  0  0  0  0  0  0  0  0  0  0  0
  -85.3837   32.3878   -0.6027 C   0  0  0  0  0  0  0  0  0  0  0  0
  -84.6921   33.6250   -1.0766 C   0  0  0  0  0  0  0  0  0  0  0  0
  -83.3571   33.5417   -0.5577 N   0  0  0  0  0  0  0  0  0  0  0  0
  -83.2028   32.3264    0.1707 C   0  0  0  0  0  0  0  0  0  0  0  0
  -82.1311   32.0236    0.7011 O   0  0  0  0  0  0  0  0  0  0  0  0
  -84.4799   31.6382    0.1214 C   0  0  0  0  0  0  0  0  0  0  0  0
  -84.9527   30.4476    0.6329 C   0  0  0  0  0  0  0  0  0  0  0  0
  -84.3797   29.4383    1.3772 C   0  0  0  0  0  0  0  0  0  0  0  0
  -83.1350   29.2361    1.9022 C   0  0  0  0  0  0  0  0  0  0  0  0
  -82.8943   28.0683    2.6253 C   0  0  0  0  0  0  0  0  0  0  0  0
  -83.8602   27.1081    2.8332 C   0  0  0  0  0  0  0  0  0  0  0  0
  -85.1165   27.3143    2.3019 C   0  0  0  0  0  0  0  0  0  0  0  0
  -85.3517   28.4515    1.5974 C   0  0  0  0  0  0  0  0  0  0  0  0
  -86.4718   28.8637    1.0004 N   0  0  0  0  0  0  0  0  0  0  0  0
  -86.2606   30.0490    0.4214 C   0  0  0  0  0  0  0  0  0  0  0  0
  -87.1441   30.8233   -0.3060 C   0  0  0  0  0  0  0  0  0  0  0  0
  -82.6094   34.2820   -0.7036 H   0  0  0  0  0  0  0  0  0  0  0  0
  -86.1922   27.5744   -2.1222 C   0  0  0  0  0  0  0  0  0  0  0  0
  -87.5735   27.7949   -2.4977 N   0  0  0  0  0  0  0  0  0  0  0  0
  -87.7606   27.2373   -3.3360 H   0  0  0  0  0  0  0  0  0  0  0  0
  -89.8318   28.7712   -2.4652 O   0  0  0  0  0  0  0  0  0  0  0  0
  -91.1087   28.4719   -2.8497 C   0  0  0  0  0  0  0  0  0  0  0  0
 33 34  1  0  0  0
 34  1  1  0  0  0
  1  2  1  0  0  0
  2  3  1  0  0  0
  3  4  1  0  0  0
  4  5  1  0  0  0
  5  6  1  0  0  0
  5  7  1  0  0  0
  7 36  1  0  0  0
 36 37  1  0  0  0
  5  8  1  0  0  0
  8  9  1  0  0  0
  9 10  2  0  0  0
 10 11  1  0  0  0
 11 12  2  0  0  0
 12 13  1  0  0  0
 13 14  2  0  0  0
 14 15  1  0  0  0
 15 16  2  0  0  0
 16 17  1  0  0  0
 17 18  1  0  0  0
 18 19  1  0  0  0
 19 20  2  0  0  0
 19 21  1  0  0  0
 21 22  2  0  0  0
 22 23  1  0  0  0
 23 24  2  0  0  0
 24 25  1  0  0  0
 25 26  2  0  0  0
 26 27  1  0  0  0
 27 28  2  0  0  0
 28 29  1  0  0  0
 29 30  1  0  0  0
 30 31  2  0  0  0
  7  1  1  0  0  0
 31  8  1  0  0  0
 29  3  1  0  0  0
 14  9  1  0  0  0
 31 15  1  0  0  0
 21 16  1  0  0  0
 30 22  1  0  0  0
 28 23  1  0  0  0
 34 35  1  0  0  0
 18 32  1  0  0  0
M  END
> <minimizedAffinity>
-9.95777

> <CNNscore>
0.2291288078

> <CNNaffinity>
6.5785737038

> <CNN_VS>
1.5073407888

> <CNNaffinity_variance>
0.5726304054

$$$$
[H]c1c([H])c([H])c2c(c1[H])c1c3c(c4c5c([H])c([H])c([H])c([H])c5n5c4c1n2[C@@]1([H])O[C@]5(C([H])([H])[H])[C@@]([H])(OC([H])([H])[H])[C@@]([H])(N([H])C([H])([H])[H])C1([H])[H])C([H])([H])N([H])C3=O


 37 44  0  0  0  0  0  0  0  0999 V2000
  -89.1233   30.2082   -3.1858 C   0  0  0  0  0  0  0  0  0  0  0  0
  -89.8584   29.3425   -2.2479 C   0  0  0  0  0  0  0  0  0  0  0  0
  -89.9411   29.8490   -0.8453 C   0  0  0  0  0  0  0  0  0  0  0  0
  -89.6173   31.0871   -0.5856 O   0  0  0  0  0  0  0  0  0  0  0  0
  -88.6528   31.7987   -1.2611 C   0  0  0  0  0  0  0  0  0  0  0  0
  -89.0497   33.2435   -0.8937 C   0  0  0  0  0  0  0  0  0  0  0  0
  -88.8306   31.6097   -2.6989 C   0  0  0  0  0  0  0  0  0  0  0  0
  -87.3553   31.4621   -0.6993 N   0  0  0  0  0  0  0  0  0  0  0  0
  -86.2370   32.1944   -0.6860 C   0  0  0  0  0  0  0  0  0  0  0  0
  -85.9407   33.4219   -1.1985 C   0  0  0  0  0  0  0  0  0  0  0  0
  -84.6728   33.9615   -1.0406 C   0  0  0  0  0  0  0  0  0  0  0  0
  -83.6655   33.3067   -0.3749 C   0  0  0  0  0  0  0  0  0  0  0  0
  -83.9552   32.0479    0.1550 C   0  0  0  0  0  0  0  0  0  0  0  0
  -85.2212   31.5385   -0.0172 C   0  0  0  0  0  0  0  0  0  0  0  0
  -85.7507   30.3313    0.4028 C   0  0  0  0  0  0  0  0  0  0  0  0
  -85.2327   29.2608    1.1186 C   0  0  0  0  0  0  0  0  0  0  0  0
  -83.8566   29.0774    1.6719 C   0  0  0  0  0  0  0  0  0  0  0  0
  -83.8753   27.8047    2.3341 N   0  0  0  0  0  0  0  0  0  0  0  0
  -85.1622   27.2097    2.1892 C   0  0  0  0  0  0  0  0  0  0  0  0
  -85.4176   26.1004    2.6645 O   0  0  0  0  0  0  0  0  0  0  0  0
  -85.9766   28.1417    1.4308 C   0  0  0  0  0  0  0  0  0  0  0  0
  -87.2824   28.1392    0.9864 C   0  0  0  0  0  0  0  0  0  0  0  0
  -88.3161   27.2313    1.0779 C   0  0  0  0  0  0  0  0  0  0  0  0
  -88.4481   25.9986    1.6513 C   0  0  0  0  0  0  0  0  0  0  0  0
  -89.6737   25.3410    1.5517 C   0  0  0  0  0  0  0  0  0  0  0  0
  -90.7591   25.8825    0.8983 C   0  0  0  0  0  0  0  0  0  0  0  0
  -90.6234   27.1275    0.3198 C   0  0  0  0  0  0  0  0  0  0  0  0
  -89.4299   27.7688    0.4164 C   0  0  0  0  0  0  0  0  0  0  0  0
  -89.0678   28.9635   -0.0549 N   0  0  0  0  0  0  0  0  0  0  0  0
  -87.7958   29.2074    0.2727 C   0  0  0  0  0  0  0  0  0  0  0  0
  -87.0266   30.3168   -0.0223 C   0  0  0  0  0  0  0  0  0  0  0  0
  -83.0470   27.3843    2.8495 H   0  0  0  0  0  0  0  0  0  0  0  0
  -87.8335   28.2604   -3.0764 C   0  0  0  0  0  0  0  0  0  0  0  0
  -87.8584   29.6018   -3.6217 N   0  0  0  0  0  0  0  0  0  0  0  0
  -87.7816   29.5249   -4.6400 H   0  0  0  0  0  0  0  0  0  0  0  0
  -87.8296   32.0610   -3.5450 O   0  0  0  0  0  0  0  0  0  0  0  0
  -88.1761   33.0871   -4.3786 C   0  0  0  0  0  0  0  0  0  0  0  0
 33 34  1  0  0  0
 34  1  1  0  0  0
  1  2  1  0  0  0
  2  3  1  0  0  0
  3  4  1  0  0  0
  4  5  1  0  0  0
  5  6  1  0  0  0
  5  7  1  0  0  0
  7 36  1  0  0  0
 36 37  1  0  0  0
  5  8  1  0  0  0
  8  9  1  0  0  0
  9 10  2  0  0  0
 10 11  1  0  0  0
 11 12  2  0  0  0
 12 13  1  0  0  0
 13 14  2  0  0  0
 14 15  1  0  0  0
 15 16  2  0  0  0
 16 17  1  0  0  0
 17 18  1  0  0  0
 18 19  1  0  0  0
 19 20  2  0  0  0
 19 21  1  0  0  0
 21 22  2  0  0  0
 22 23  1  0  0  0
 23 24  2  0  0  0
 24 25  1  0  0  0
 25 26  2  0  0  0
 26 27  1  0  0  0
 27 28  2  0  0  0
 28 29  1  0  0  0
 29 30  1  0  0  0
 30 31  2  0  0  0
  7  1  1  0  0  0
 31  8  1  0  0  0
 29  3  1  0  0  0
 14  9  1  0  0  0
 31 15  1  0  0  0
 21 16  1  0  0  0
 30 22  1  0  0  0
 28 23  1  0  0  0
 34 35  1  0  0  0
 18 32  1  0  0  0
M  END
> <minimizedAffinity>
-10.22291

> <CNNscore>
0.2255734354

> <CNNaffinity>
6.7412385941

> <CNN_VS>
1.5206443071

> <CNNaffinity_variance>
0.1352533698

$$$$
[H]c1c([H])c([H])c2c(c1[H])c1c3c(c4c5c([H])c([H])c([H])c([H])c5n5c4c1n2[C@@]1([H])O[C@]5(C([H])([H])[H])[C@@]([H])(OC([H])([H])[H])[C@@]([H])(N([H])C([H])([H])[H])C1([H])[H])C([H])([H])N([H])C3=O


 37 44  0  0  0  0  0  0  0  0999 V2000
  -90.8335   29.7277   -1.1477 C   0  0  0  0  0  0  0  0  0  0  0  0
  -90.4437   30.6047   -2.2650 C   0  0  0  0  0  0  0  0  0  0  0  0
  -89.2458   30.1580   -3.0372 C   0  0  0  0  0  0  0  0  0  0  0  0
  -88.7874   28.9462   -2.8742 O   0  0  0  0  0  0  0  0  0  0  0  0
  -88.8445   28.2436   -1.6926 C   0  0  0  0  0  0  0  0  0  0  0  0
  -88.6432   26.8020   -2.2041 C   0  0  0  0  0  0  0  0  0  0  0  0
  -90.1852   28.3616   -1.1241 C   0  0  0  0  0  0  0  0  0  0  0  0
  -87.7276   28.6551   -0.8587 N   0  0  0  0  0  0  0  0  0  0  0  0
  -87.1119   27.9682    0.1089 C   0  0  0  0  0  0  0  0  0  0  0  0
  -87.3342   26.7317    0.6370 C   0  0  0  0  0  0  0  0  0  0  0  0
  -86.5299   26.2496    1.6589 C   0  0  0  0  0  0  0  0  0  0  0  0
  -85.4875   26.9720    2.1862 C   0  0  0  0  0  0  0  0  0  0  0  0
  -85.2487   28.2408    1.6547 C   0  0  0  0  0  0  0  0  0  0  0  0
  -86.0626   28.6922    0.6420 C   0  0  0  0  0  0  0  0  0  0  0  0
  -86.0362   29.8953   -0.0406 C   0  0  0  0  0  0  0  0  0  0  0  0
  -85.2204   31.0158    0.0340 C   0  0  0  0  0  0  0  0  0  0  0  0
  -84.0624   31.2771    0.9419 C   0  0  0  0  0  0  0  0  0  0  0  0
  -83.5742   32.5761    0.5777 N   0  0  0  0  0  0  0  0  0  0  0  0
  -84.3801   33.1135   -0.4678 C   0  0  0  0  0  0  0  0  0  0  0  0
  -84.1626   34.2319   -0.9404 O   0  0  0  0  0  0  0  0  0  0  0  0
  -85.3895   32.1177   -0.7786 C   0  0  0  0  0  0  0  0  0  0  0  0
  -86.4290   32.0496   -1.6827 C   0  0  0  0  0  0  0  0  0  0  0  0
  -86.9218   32.9197   -2.6321 C   0  0  0  0  0  0  0  0  0  0  0  0
  -86.5648   34.1705   -3.0490 C   0  0  0  0  0  0  0  0  0  0  0  0
  -87.3045   34.7748   -4.0650 C   0  0  0  0  0  0  0  0  0  0  0  0
  -88.3820   34.1629   -4.6673 C   0  0  0  0  0  0  0  0  0  0  0  0
  -88.7409   32.8998   -4.2445 C   0  0  0  0  0  0  0  0  0  0  0  0
  -88.0209   32.3104   -3.2549 C   0  0  0  0  0  0  0  0  0  0  0  0
  -88.1765   31.1110   -2.6911 N   0  0  0  0  0  0  0  0  0  0  0  0
  -87.2408   30.9316   -1.7545 C   0  0  0  0  0  0  0  0  0  0  0  0
  -87.0447   29.8411   -0.9289 C   0  0  0  0  0  0  0  0  0  0  0  0
  -82.7378   33.0510    1.0288 H   0  0  0  0  0  0  0  0  0  0  0  0
  -90.0631   31.6772   -0.1109 C   0  0  0  0  0  0  0  0  0  0  0  0
  -90.6093   30.3630    0.1576 N   0  0  0  0  0  0  0  0  0  0  0  0
  -91.4720   30.4887    0.6947 H   0  0  0  0  0  0  0  0  0  0  0  0
  -90.3863   27.9127    0.1718 O   0  0  0  0  0  0  0  0  0  0  0  0
  -91.3131   26.9190    0.3177 C   0  0  0  0  0  0  0  0  0  0  0  0
 33 34  1  0  0  0
 34  1  1  0  0  0
  1  2  1  0  0  0
  2  3  1  0  0  0
  3  4  1  0  0  0
  4  5  1  0  0  0
  5  6  1  0  0  0
  5  7  1  0  0  0
  7 36  1  0  0  0
 36 37  1  0  0  0
  5  8  1  0  0  0
  8  9  1  0  0  0
  9 10  2  0  0  0
 10 11  1  0  0  0
 11 12  2  0  0  0
 12 13  1  0  0  0
 13 14  2  0  0  0
 14 15  1  0  0  0
 15 16  2  0  0  0
 16 17  1  0  0  0
 17 18  1  0  0  0
 18 19  1  0  0  0
 19 20  2  0  0  0
 19 21  1  0  0  0
 21 22  2  0  0  0
 22 23  1  0  0  0
 23 24  2  0  0  0
 24 25  1  0  0  0
 25 26  2  0  0  0
 26 27  1  0  0  0
 27 28  2  0  0  0
 28 29  1  0  0  0
 29 30  1  0  0  0
 30 31  2  0  0  0
  7  1  1  0  0  0
 31  8  1  0  0  0
 29  3  1  0  0  0
 14  9  1  0  0  0
 31 15  1  0  0  0
 21 16  1  0  0  0
 30 22  1  0  0  0
 28 23  1  0  0  0
 34 35  1  0  0  0
 18 32  1  0  0  0
M  END
> <minimizedAffinity>
-8.67784

> <CNNscore>
0.2188499868

> <CNNaffinity>
6.3617639542

> <CNN_VS>
1.3922719955

> <CNNaffinity_variance>
0.4248330593

$$$$
[H]c1c([H])c([H])c2c(c1[H])c1c3c(c4c5c([H])c([H])c([H])c([H])c5n5c4c1n2[C@@]1([H])O[C@]5(C([H])([H])[H])[C@@]([H])(OC([H])([H])[H])[C@@]([H])(N([H])C([H])([H])[H])C1([H])[H])C([H])([H])N([H])C3=O


 37 44  0  0  0  0  0  0  0  0999 V2000
  -93.4637   23.4724   -3.7476 C   0  0  0  0  0  0  0  0  0  0  0  0
  -94.1053   22.4597   -2.8920 C   0  0  0  0  0  0  0  0  0  0  0  0
  -94.7809   22.9929   -1.6712 C   0  0  0  0  0  0  0  0  0  0  0  0
  -94.9980   24.2758   -1.5617 O   0  0  0  0  0  0  0  0  0  0  0  0
  -94.1798   25.2521   -2.0817 C   0  0  0  0  0  0  0  0  0  0  0  0
  -95.1410   26.4588   -2.0921 C   0  0  0  0  0  0  0  0  0  0  0  0
  -93.8340   24.9100   -3.4593 C   0  0  0  0  0  0  0  0  0  0  0  0
  -93.0833   25.4749   -1.1541 N   0  0  0  0  0  0  0  0  0  0  0  0
  -92.3459   26.5768   -0.9839 C   0  0  0  0  0  0  0  0  0  0  0  0
  -92.3482   27.7858   -1.6129 C   0  0  0  0  0  0  0  0  0  0  0  0
  -91.4558   28.7770   -1.2327 C   0  0  0  0  0  0  0  0  0  0  0  0
  -90.5393   28.6031   -0.2245 C   0  0  0  0  0  0  0  0  0  0  0  0
  -90.5256   27.3691    0.4283 C   0  0  0  0  0  0  0  0  0  0  0  0
  -91.4224   26.4054    0.0296 C   0  0  0  0  0  0  0  0  0  0  0  0
  -91.6059   25.1199    0.5071 C   0  0  0  0  0  0  0  0  0  0  0  0
  -90.9964   24.3800    1.5108 C   0  0  0  0  0  0  0  0  0  0  0  0
  -89.8801   24.7733    2.4233 C   0  0  0  0  0  0  0  0  0  0  0  0
  -89.6614   23.6388    3.2740 N   0  0  0  0  0  0  0  0  0  0  0  0
  -90.5556   22.5901    2.9109 C   0  0  0  0  0  0  0  0  0  0  0  0
  -90.5462   21.5032    3.4941 O   0  0  0  0  0  0  0  0  0  0  0  0
  -91.3678   23.0866    1.8150 C   0  0  0  0  0  0  0  0  0  0  0  0
  -92.3910   22.5561    1.0573 C   0  0  0  0  0  0  0  0  0  0  0  0
  -93.0249   21.3319    1.0397 C   0  0  0  0  0  0  0  0  0  0  0  0
  -92.8935   20.1849    1.7697 C   0  0  0  0  0  0  0  0  0  0  0  0
  -93.7255   19.1049    1.4767 C   0  0  0  0  0  0  0  0  0  0  0  0
  -94.6763   19.1455    0.4803 C   0  0  0  0  0  0  0  0  0  0  0  0
  -94.8071   20.3048   -0.2558 C   0  0  0  0  0  0  0  0  0  0  0  0
  -93.9970   21.3572    0.0290 C   0  0  0  0  0  0  0  0  0  0  0  0
  -93.9422   22.5639   -0.5381 N   0  0  0  0  0  0  0  0  0  0  0  0
  -92.9963   23.2960    0.0570 C   0  0  0  0  0  0  0  0  0  0  0  0
  -92.6044   24.5912   -0.2226 C   0  0  0  0  0  0  0  0  0  0  0  0
  -88.9385   23.6024    4.0515 H   0  0  0  0  0  0  0  0  0  0  0  0
  -91.6892   22.0268   -3.2678 C   0  0  0  0  0  0  0  0  0  0  0  0
  -91.9989   23.3646   -3.7280 N   0  0  0  0  0  0  0  0  0  0  0  0
  -91.5769   23.4804   -4.6538 H   0  0  0  0  0  0  0  0  0  0  0  0
  -92.8419   25.6483   -4.0856 O   0  0  0  0  0  0  0  0  0  0  0  0
  -91.6800   25.7969   -3.3815 C   0  0  0  0  0  0  0  0  0  0  0  0
 33 34  1  0  0  0
 34  1  1  0  0  0
  1  2  1  0  0  0
  2  3  1  0  0  0
  3  4  1  0  0  0
  4  5  1  0  0  0
  5  6  1  0  0  0
  5  7  1  0  0  0
  7 36  1  0  0  0
 36 37  1  0  0  0
  5  8  1  0  0  0
  8  9  1  0  0  0
  9 10  2  0  0  0
 10 11  1  0  0  0
 11 12  2  0  0  0
 12 13  1  0  0  0
 13 14  2  0  0  0
 14 15  1  0  0  0
 15 16  2  0  0  0
 16 17  1  0  0  0
 17 18  1  0  0  0
 18 19  1  0  0  0
 19 20  2  0  0  0
 19 21  1  0  0  0
 21 22  2  0  0  0
 22 23  1  0  0  0
 23 24  2  0  0  0
 24 25  1  0  0  0
 25 26  2  0  0  0
 26 27  1  0  0  0
 27 28  2  0  0  0
 28 29  1  0  0  0
 29 30  1  0  0  0
 30 31  2  0  0  0
  7  1  1  0  0  0
 31  8  1  0  0  0
 29  3  1  0  0  0
 14  9  1  0  0  0
 31 15  1  0  0  0
 21 16  1  0  0  0
 30 22  1  0  0  0
 28 23  1  0  0  0
 34 35  1  0  0  0
 18 32  1  0  0  0
M  END
> <minimizedAffinity>
-3.28389

> <CNNscore>
0.2124501616

> <CNNaffinity>
5.4091215134

> <CNN_VS>
1.1491687298

> <CNNaffinity_variance>
0.1761521995

$$$$
[H]c1c([H])c([H])c2c(c1[H])c1c3c(c4c5c([H])c([H])c([H])c([H])c5n5c4c1n2[C@@]1([H])O[C@]5(C([H])([H])[H])[C@@]([H])(OC([H])([H])[H])[C@@]([H])(N([H])C([H])([H])[H])C1([H])[H])C([H])([H])N([H])C3=O


 37 44  0  0  0  0  0  0  0  0999 V2000
  -89.4137   27.1419   -2.0216 C   0  0  0  0  0  0  0  0  0  0  0  0
  -88.6711   27.2675   -0.7558 C   0  0  0  0  0  0  0  0  0  0  0  0
  -89.1448   28.3519    0.1554 C   0  0  0  0  0  0  0  0  0  0  0  0
  -90.2951   28.9277   -0.0693 O   0  0  0  0  0  0  0  0  0  0  0  0
  -90.8370   29.1256   -1.3183 C   0  0  0  0  0  0  0  0  0  0  0  0
  -92.3192   29.3548   -0.9569 C   0  0  0  0  0  0  0  0  0  0  0  0
  -90.7239   27.8934   -2.0953 C   0  0  0  0  0  0  0  0  0  0  0  0
  -90.2534   30.3290   -1.8871 N   0  0  0  0  0  0  0  0  0  0  0  0
  -90.7683   31.1510   -2.8070 C   0  0  0  0  0  0  0  0  0  0  0  0
  -91.9348   31.1209   -3.5110 C   0  0  0  0  0  0  0  0  0  0  0  0
  -92.2289   32.1208   -4.4260 C   0  0  0  0  0  0  0  0  0  0  0  0
  -91.3826   33.1746   -4.6709 C   0  0  0  0  0  0  0  0  0  0  0  0
  -90.1837   33.2178   -3.9568 C   0  0  0  0  0  0  0  0  0  0  0  0
  -89.9193   32.2125   -3.0561 C   0  0  0  0  0  0  0  0  0  0  0  0
  -88.8180   32.0271   -2.2396 C   0  0  0  0  0  0  0  0  0  0  0  0
  -87.6513   32.7504   -2.0341 C   0  0  0  0  0  0  0  0  0  0  0  0
  -87.2040   34.0187   -2.6860 C   0  0  0  0  0  0  0  0  0  0  0  0
  -85.9383   34.3325   -2.0878 N   0  0  0  0  0  0  0  0  0  0  0  0
  -85.5927   33.3226   -1.1434 C   0  0  0  0  0  0  0  0  0  0  0  0
  -84.5361   33.3669   -0.5086 O   0  0  0  0  0  0  0  0  0  0  0  0
  -86.6788   32.3594   -1.1371 C   0  0  0  0  0  0  0  0  0  0  0  0
  -86.9274   31.1927   -0.4448 C   0  0  0  0  0  0  0  0  0  0  0  0
  -86.2216   30.4795    0.5009 C   0  0  0  0  0  0  0  0  0  0  0  0
  -85.0182   30.6595    1.1217 C   0  0  0  0  0  0  0  0  0  0  0  0
  -84.5987   29.7142    2.0571 C   0  0  0  0  0  0  0  0  0  0  0  0
  -85.3476   28.6044    2.3824 C   0  0  0  0  0  0  0  0  0  0  0  0
  -86.5624   28.4246    1.7540 C   0  0  0  0  0  0  0  0  0  0  0  0
  -86.9718   29.3449    0.8428 C   0  0  0  0  0  0  0  0  0  0  0  0
  -88.0929   29.3832    0.1200 N   0  0  0  0  0  0  0  0  0  0  0  0
  -88.0910   30.4735   -0.6521 C   0  0  0  0  0  0  0  0  0  0  0  0
  -89.0488   30.8923   -1.5556 C   0  0  0  0  0  0  0  0  0  0  0  0
  -85.3592   35.1912   -2.3244 H   0  0  0  0  0  0  0  0  0  0  0  0
  -87.2783   27.8380   -2.6731 C   0  0  0  0  0  0  0  0  0  0  0  0
  -88.5988   27.5286   -3.1810 N   0  0  0  0  0  0  0  0  0  0  0  0
  -88.4990   26.7763   -3.8686 H   0  0  0  0  0  0  0  0  0  0  0  0
  -91.0081   27.9485   -3.4509 O   0  0  0  0  0  0  0  0  0  0  0  0
  -92.0729   27.1979   -3.8641 C   0  0  0  0  0  0  0  0  0  0  0  0
 33 34  1  0  0  0
 34  1  1  0  0  0
  1  2  1  0  0  0
  2  3  1  0  0  0
  3  4  1  0  0  0
  4  5  1  0  0  0
  5  6  1  0  0  0
  5  7  1  0  0  0
  7 36  1  0  0  0
 36 37  1  0  0  0
  5  8  1  0  0  0
  8  9  1  0  0  0
  9 10  2  0  0  0
 10 11  1  0  0  0
 11 12  2  0  0  0
 12 13  1  0  0  0
 13 14  2  0  0  0
 14 15  1  0  0  0
 15 16  2  0  0  0
 16 17  1  0  0  0
 17 18  1  0  0  0
 18 19  1  0  0  0
 19 20  2  0  0  0
 19 21  1  0  0  0
 21 22  2  0  0  0
 22 23  1  0  0  0
 23 24  2  0  0  0
 24 25  1  0  0  0
 25 26  2  0  0  0
 26 27  1  0  0  0
 27 28  2  0  0  0
 28 29  1  0  0  0
 29 30  1  0  0  0
 30 31  2  0  0  0
  7  1  1  0  0  0
 31  8  1  0  0  0
 29  3  1  0  0  0
 14  9  1  0  0  0
 31 15  1  0  0  0
 21 16  1  0  0  0
 30 22  1  0  0  0
 28 23  1  0  0  0
 34 35  1  0  0  0
 18 32  1  0  0  0
M  END
> <minimizedAffinity>
-9.68581

> <CNNscore>
0.1722070724

> <CNNaffinity>
6.3327403069

> <CNN_VS>
1.0905426741

> <CNNaffinity_variance>
0.1618671715

$$$$
[H]c1c([H])c([H])c2c(c1[H])c1c3c(c4c5c([H])c([H])c([H])c([H])c5n5c4c1n2[C@@]1([H])O[C@]5(C([H])([H])[H])[C@@]([H])(OC([H])([H])[H])[C@@]([H])(N([H])C([H])([H])[H])C1([H])[H])C([H])([H])N([H])C3=O


 37 44  0  0  0  0  0  0  0  0999 V2000
  -90.3219   23.8877   -0.4850 C   0  0  0  0  0  0  0  0  0  0  0  0
  -90.1460   25.2516    0.0427 C   0  0  0  0  0  0  0  0  0  0  0  0
  -91.4031   26.0444    0.1901 C   0  0  0  0  0  0  0  0  0  0  0  0
  -92.5592   25.4425    0.1104 O   0  0  0  0  0  0  0  0  0  0  0  0
  -92.8137   24.3445   -0.6787 C   0  0  0  0  0  0  0  0  0  0  0  0
  -94.0959   23.8022   -0.0138 C   0  0  0  0  0  0  0  0  0  0  0  0
  -91.7415   23.3670   -0.5074 C   0  0  0  0  0  0  0  0  0  0  0  0
  -93.0886   24.8035   -2.0300 N   0  0  0  0  0  0  0  0  0  0  0  0
  -93.8129   24.2068   -2.9821 C   0  0  0  0  0  0  0  0  0  0  0  0
  -94.4722   23.0147   -3.0185 C   0  0  0  0  0  0  0  0  0  0  0  0
  -95.1603   22.6272   -4.1587 C   0  0  0  0  0  0  0  0  0  0  0  0
  -95.2166   23.4030   -5.2908 C   0  0  0  0  0  0  0  0  0  0  0  0
  -94.5452   24.6269   -5.2675 C   0  0  0  0  0  0  0  0  0  0  0  0
  -93.8714   24.9844   -4.1229 C   0  0  0  0  0  0  0  0  0  0  0  0
  -93.1373   26.1253   -3.8517 C   0  0  0  0  0  0  0  0  0  0  0  0
  -92.8388   27.2639   -4.5873 C   0  0  0  0  0  0  0  0  0  0  0  0
  -93.2366   27.6113   -5.9853 C   0  0  0  0  0  0  0  0  0  0  0  0
  -92.6752   28.9082   -6.2335 N   0  0  0  0  0  0  0  0  0  0  0  0
  -91.9501   29.3423   -5.0859 C   0  0  0  0  0  0  0  0  0  0  0  0
  -91.3637   30.4273   -5.0654 O   0  0  0  0  0  0  0  0  0  0  0  0
  -92.0747   28.2974   -4.0860 C   0  0  0  0  0  0  0  0  0  0  0  0
  -91.6126   28.1386   -2.7961 C   0  0  0  0  0  0  0  0  0  0  0  0
  -90.8315   28.9122   -1.9640 C   0  0  0  0  0  0  0  0  0  0  0  0
  -90.2292   30.1316   -2.0911 C   0  0  0  0  0  0  0  0  0  0  0  0
  -89.4931   30.6306   -1.0171 C   0  0  0  0  0  0  0  0  0  0  0  0
  -89.3471   29.9449    0.1690 C   0  0  0  0  0  0  0  0  0  0  0  0
  -89.9560   28.7135    0.2950 C   0  0  0  0  0  0  0  0  0  0  0  0
  -90.6733   28.2267   -0.7507 C   0  0  0  0  0  0  0  0  0  0  0  0
  -91.3424   27.0773   -0.8591 N   0  0  0  0  0  0  0  0  0  0  0  0
  -91.9113   27.0023   -2.0655 C   0  0  0  0  0  0  0  0  0  0  0  0
  -92.6823   25.9846   -2.5939 C   0  0  0  0  0  0  0  0  0  0  0  0
  -92.7917   29.4489   -7.1404 H   0  0  0  0  0  0  0  0  0  0  0  0
  -89.0153   24.9527   -2.1060 C   0  0  0  0  0  0  0  0  0  0  0  0
  -89.7592   23.7403   -1.8338 N   0  0  0  0  0  0  0  0  0  0  0  0
  -89.1095   22.9527   -1.9123 H   0  0  0  0  0  0  0  0  0  0  0  0
  -91.6946   22.2905   -1.3794 O   0  0  0  0  0  0  0  0  0  0  0  0
  -92.2637   21.1342   -0.9246 C   0  0  0  0  0  0  0  0  0  0  0  0
 33 34  1  0  0  0
 34  1  1  0  0  0
  1  2  1  0  0  0
  2  3  1  0  0  0
  3  4  1  0  0  0
  4  5  1  0  0  0
  5  6  1  0  0  0
  5  7  1  0  0  0
  7 36  1  0  0  0
 36 37  1  0  0  0
  5  8  1  0  0  0
  8  9  1  0  0  0
  9 10  2  0  0  0
 10 11  1  0  0  0
 11 12  2  0  0  0
 12 13  1  0  0  0
 13 14  2  0  0  0
 14 15  1  0  0  0
 15 16  2  0  0  0
 16 17  1  0  0  0
 17 18  1  0  0  0
 18 19  1  0  0  0
 19 20  2  0  0  0
 19 21  1  0  0  0
 21 22  2  0  0  0
 22 23  1  0  0  0
 23 24  2  0  0  0
 24 25  1  0  0  0
 25 26  2  0  0  0
 26 27  1  0  0  0
 27 28  2  0  0  0
 28 29  1  0  0  0
 29 30  1  0  0  0
 30 31  2  0  0  0
  7  1  1  0  0  0
 31  8  1  0  0  0
 29  3  1  0  0  0
 14  9  1  0  0  0
 31 15  1  0  0  0
 21 16  1  0  0  0
 30 22  1  0  0  0
 28 23  1  0  0  0
 34 35  1  0  0  0
 18 32  1  0  0  0
M  END
> <minimizedAffinity>
-6.12538

> <CNNscore>
0.0811601579

> <CNNaffinity>
5.5181584358

> <CNN_VS>
0.4478546083

> <CNNaffinity_variance>
0.0680447817

$$$$
[H]c1c([H])c([H])c2c(c1[H])c1c3c(c4c5c([H])c([H])c([H])c([H])c5n5c4c1n2[C@@]1([H])O[C@]5(C([H])([H])[H])[C@@]([H])(OC([H])([H])[H])[C@@]([H])(N([H])C([H])([H])[H])C1([H])[H])C([H])([H])N([H])C3=O


 37 44  0  0  0  0  0  0  0  0999 V2000
  -87.4908   26.2538   -0.1466 C   0  0  0  0  0  0  0  0  0  0  0  0
  -86.8517   27.4528    0.4220 C   0  0  0  0  0  0  0  0  0  0  0  0
  -87.7633   28.3620    1.1791 C   0  0  0  0  0  0  0  0  0  0  0  0
  -88.9540   27.9466    1.5181 O   0  0  0  0  0  0  0  0  0  0  0  0
  -89.7123   27.0673    0.7800 C   0  0  0  0  0  0  0  0  0  0  0  0
  -90.7131   26.5815    1.8489 C   0  0  0  0  0  0  0  0  0  0  0  0
  -88.8793   25.9412    0.3643 C   0  0  0  0  0  0  0  0  0  0  0  0
  -90.3951   27.8132   -0.2639 N   0  0  0  0  0  0  0  0  0  0  0  0
  -91.5380   27.5154   -0.8901 C   0  0  0  0  0  0  0  0  0  0  0  0
  -92.3846   26.4518   -0.7930 C   0  0  0  0  0  0  0  0  0  0  0  0
  -93.5264   26.3892   -1.5778 C   0  0  0  0  0  0  0  0  0  0  0  0
  -93.8633   27.3711   -2.4772 C   0  0  0  0  0  0  0  0  0  0  0  0
  -93.0045   28.4665   -2.5873 C   0  0  0  0  0  0  0  0  0  0  0  0
  -91.8799   28.5012   -1.7961 C   0  0  0  0  0  0  0  0  0  0  0  0
  -90.8847   29.4591   -1.7197 C   0  0  0  0  0  0  0  0  0  0  0  0
  -90.6748   30.6692   -2.3665 C   0  0  0  0  0  0  0  0  0  0  0  0
  -91.5087   31.3322   -3.4146 C   0  0  0  0  0  0  0  0  0  0  0  0
  -90.8403   32.5660   -3.7137 N   0  0  0  0  0  0  0  0  0  0  0  0
  -89.6529   32.6677   -2.9321 C   0  0  0  0  0  0  0  0  0  0  0  0
  -88.8996   33.6399   -3.0261 O   0  0  0  0  0  0  0  0  0  0  0  0
  -89.5844   31.4740   -2.1089 C   0  0  0  0  0  0  0  0  0  0  0  0
  -88.6971   31.0068   -1.1618 C   0  0  0  0  0  0  0  0  0  0  0  0
  -87.5144   31.4924   -0.6456 C   0  0  0  0  0  0  0  0  0  0  0  0
  -86.7775   32.6219   -0.8625 C   0  0  0  0  0  0  0  0  0  0  0  0
  -85.5959   32.7995   -0.1437 C   0  0  0  0  0  0  0  0  0  0  0  0
  -85.1392   31.8826    0.7777 C   0  0  0  0  0  0  0  0  0  0  0  0
  -85.8849   30.7425    0.9950 C   0  0  0  0  0  0  0  0  0  0  0  0
  -87.0360   30.5688    0.2951 C   0  0  0  0  0  0  0  0  0  0  0  0
  -87.9109   29.5621    0.3369 N   0  0  0  0  0  0  0  0  0  0  0  0
  -88.9086   29.8000   -0.5191 C   0  0  0  0  0  0  0  0  0  0  0  0
  -90.0127   29.0167   -0.7963 C   0  0  0  0  0  0  0  0  0  0  0  0
  -91.1905   33.2837   -4.4143 H   0  0  0  0  0  0  0  0  0  0  0  0
  -86.8935   27.5301   -2.0130 C   0  0  0  0  0  0  0  0  0  0  0  0
  -87.5425   26.2984   -1.6139 N   0  0  0  0  0  0  0  0  0  0  0  0
  -87.0386   25.5242   -2.0557 H   0  0  0  0  0  0  0  0  0  0  0  0
  -89.3951   25.0588   -0.5721 O   0  0  0  0  0  0  0  0  0  0  0  0
  -89.6718   23.8018   -0.1124 C   0  0  0  0  0  0  0  0  0  0  0  0
 33 34  1  0  0  0
 34  1  1  0  0  0
  1  2  1  0  0  0
  2  3  1  0  0  0
  3  4  1  0  0  0
  4  5  1  0  0  0
  5  6  1  0  0  0
  5  7  1  0  0  0
  7 36  1  0  0  0
 36 37  1  0  0  0
  5  8  1  0  0  0
  8  9  1  0  0  0
  9 10  2  0  0  0
 10 11  1  0  0  0
 11 12  2  0  0  0
 12 13  1  0  0  0
 13 14  2  0  0  0
 14 15  1  0  0  0
 15 16  2  0  0  0
 16 17  1  0  0  0
 17 18  1  0  0  0
 18 19  1  0  0  0
 19 20  2  0  0  0
 19 21  1  0  0  0
 21 22  2  0  0  0
 22 23  1  0  0  0
 23 24  2  0  0  0
 24 25  1  0  0  0
 25 26  2  0  0  0
 26 27  1  0  0  0
 27 28  2  0  0  0
 28 29  1  0  0  0
 29 30  1  0  0  0
 30 31  2  0  0  0
  7  1  1  0  0  0
 31  8  1  0  0  0
 29  3  1  0  0  0
 14  9  1  0  0  0
 31 15  1  0  0  0
 21 16  1  0  0  0
 30 22  1  0  0  0
 28 23  1  0  0  0
 34 35  1  0  0  0
 18 32  1  0  0  0
M  END
> <minimizedAffinity>
-8.96314

> <CNNscore>
0.0788697377

> <CNNaffinity>
5.9812517166

> <CNN_VS>
0.4717397392

> <CNNaffinity_variance>
0.3570260406

$$$$
[H]c1c([H])c([H])c2c(c1[H])c1c3c(c4c5c([H])c([H])c([H])c([H])c5n5c4c1n2[C@@]1([H])O[C@]5(C([H])([H])[H])[C@@]([H])(OC([H])([H])[H])[C@@]([H])(N([H])C([H])([H])[H])C1([H])[H])C([H])([H])N([H])C3=O


 37 44  0  0  0  0  0  0  0  0999 V2000
  -89.2286   33.0555   -1.9979 C   0  0  0  0  0  0  0  0  0  0  0  0
  -87.7899   33.1379   -1.6935 C   0  0  0  0  0  0  0  0  0  0  0  0
  -86.9353   32.1204   -2.3756 C   0  0  0  0  0  0  0  0  0  0  0  0
  -87.4277   31.4199   -3.3616 O   0  0  0  0  0  0  0  0  0  0  0  0
  -88.7454   31.0377   -3.4644 C   0  0  0  0  0  0  0  0  0  0  0  0
  -88.8352   30.7136   -4.9700 C   0  0  0  0  0  0  0  0  0  0  0  0
  -89.6051   32.1828   -3.1742 C   0  0  0  0  0  0  0  0  0  0  0  0
  -88.9397   29.8384   -2.6667 N   0  0  0  0  0  0  0  0  0  0  0  0
  -89.8562   28.8768   -2.8163 C   0  0  0  0  0  0  0  0  0  0  0  0
  -90.8852   28.7222   -3.6963 C   0  0  0  0  0  0  0  0  0  0  0  0
  -91.7051   27.6056   -3.6291 C   0  0  0  0  0  0  0  0  0  0  0  0
  -91.5328   26.6139   -2.6945 C   0  0  0  0  0  0  0  0  0  0  0  0
  -90.4824   26.7597   -1.7862 C   0  0  0  0  0  0  0  0  0  0  0  0
  -89.6861   27.8774   -1.8773 C   0  0  0  0  0  0  0  0  0  0  0  0
  -88.6000   28.2516   -1.1063 C   0  0  0  0  0  0  0  0  0  0  0  0
  -87.9481   27.6658   -0.0300 C   0  0  0  0  0  0  0  0  0  0  0  0
  -88.2543   26.3806    0.6687 C   0  0  0  0  0  0  0  0  0  0  0  0
  -87.2564   26.2521    1.6915 N   0  0  0  0  0  0  0  0  0  0  0  0
  -86.3943   27.3866    1.6630 C   0  0  0  0  0  0  0  0  0  0  0  0
  -85.4627   27.5095    2.4620 O   0  0  0  0  0  0  0  0  0  0  0  0
  -86.8537   28.2404    0.5826 C   0  0  0  0  0  0  0  0  0  0  0  0
  -86.4342   29.4479    0.0643 C   0  0  0  0  0  0  0  0  0  0  0  0
  -85.4195   30.3220    0.3919 C   0  0  0  0  0  0  0  0  0  0  0  0
  -84.4375   30.3227    1.3414 C   0  0  0  0  0  0  0  0  0  0  0  0
  -83.5523   31.3991    1.3892 C   0  0  0  0  0  0  0  0  0  0  0  0
  -83.6261   32.4640    0.5180 C   0  0  0  0  0  0  0  0  0  0  0  0
  -84.6188   32.4613   -0.4399 C   0  0  0  0  0  0  0  0  0  0  0  0
  -85.4815   31.4131   -0.4871 C   0  0  0  0  0  0  0  0  0  0  0  0
  -86.5049   31.1929   -1.3146 N   0  0  0  0  0  0  0  0  0  0  0  0
  -87.0863   30.0297   -1.0083 C   0  0  0  0  0  0  0  0  0  0  0  0
  -88.1786   29.4282   -1.6034 C   0  0  0  0  0  0  0  0  0  0  0  0
  -87.1851   25.4298    2.3603 H   0  0  0  0  0  0  0  0  0  0  0  0
  -89.0821   32.4686    0.2611 C   0  0  0  0  0  0  0  0  0  0  0  0
  -90.0153   32.6214   -0.8359 N   0  0  0  0  0  0  0  0  0  0  0  0
  -90.7201   33.3075   -0.5511 H   0  0  0  0  0  0  0  0  0  0  0  0
  -90.9620   31.9541   -3.0067 O   0  0  0  0  0  0  0  0  0  0  0  0
  -91.7584   32.3182   -4.0561 C   0  0  0  0  0  0  0  0  0  0  0  0
 33 34  1  0  0  0
 34  1  1  0  0  0
  1  2  1  0  0  0
  2  3  1  0  0  0
  3  4  1  0  0  0
  4  5  1  0  0  0
  5  6  1  0  0  0
  5  7  1  0  0  0
  7 36  1  0  0  0
 36 37  1  0  0  0
  5  8  1  0  0  0
  8  9  1  0  0  0
  9 10  2  0  0  0
 10 11  1  0  0  0
 11 12  2  0  0  0
 12 13  1  0  0  0
 13 14  2  0  0  0
 14 15  1  0  0  0
 15 16  2  0  0  0
 16 17  1  0  0  0
 17 18  1  0  0  0
 18 19  1  0  0  0
 19 20  2  0  0  0
 19 21  1  0  0  0
 21 22  2  0  0  0
 22 23  1  0  0  0
 23 24  2  0  0  0
 24 25  1  0  0  0
 25 26  2  0  0  0
 26 27  1  0  0  0
 27 28  2  0  0  0
 28 29  1  0  0  0
 29 30  1  0  0  0
 30 31  2  0  0  0
  7  1  1  0  0  0
 31  8  1  0  0  0
 29  3  1  0  0  0
 14  9  1  0  0  0
 31 15  1  0  0  0
 21 16  1  0  0  0
 30 22  1  0  0  0
 28 23  1  0  0  0
 34 35  1  0  0  0
 18 32  1  0  0  0
M  END
> <minimizedAffinity>
-7.71797

> <CNNscore>
0.0640811324

> <CNNaffinity>
5.8786001205

> <CNN_VS>
0.3767073452

> <CNNaffinity_variance>
0.6747230291

$$$$
[H]c1nc([H])c([H])c(-c2c([H])c([H])c3c(N([H])[H])nn([H])c3c2[H])c1[H]


 19 21  0  0  0  0  0  0  0  0999 V2000
  -83.2376   29.6084    2.0137 N   0  0  0  0  0  0  0  0  0  0  0  0
  -83.2715   30.7662    1.1865 C   0  0  0  0  0  0  0  0  0  0  0  0
  -82.2762   31.6147    0.8672 N   0  0  0  0  0  0  0  0  0  0  0  0
  -82.7141   32.5747    0.0661 N   0  0  0  0  0  0  0  0  0  0  0  0
  -84.0382   32.3973   -0.1809 C   0  0  0  0  0  0  0  0  0  0  0  0
  -84.9667   33.0898   -0.9311 C   0  0  0  0  0  0  0  0  0  0  0  0
  -86.2715   32.6379   -0.9789 C   0  0  0  0  0  0  0  0  0  0  0  0
  -86.6160   31.4875   -0.2634 C   0  0  0  0  0  0  0  0  0  0  0  0
  -85.6749   30.8080    0.4811 C   0  0  0  0  0  0  0  0  0  0  0  0
  -84.3869   31.2630    0.5221 C   0  0  0  0  0  0  0  0  0  0  0  0
  -83.9525   29.3909    2.7431 H   0  0  0  0  0  0  0  0  0  0  0  0
  -82.4622   28.9183    1.9056 H   0  0  0  0  0  0  0  0  0  0  0  0
  -82.1842   33.3655   -0.3432 H   0  0  0  0  0  0  0  0  0  0  0  0
  -87.2695   33.3549   -1.7660 C   0  0  0  0  0  0  0  0  0  0  0  0
  -88.5974   33.0138   -1.8216 C   0  0  0  0  0  0  0  0  0  0  0  0
  -89.4991   33.7238   -2.5802 C   0  0  0  0  0  0  0  0  0  0  0  0
  -89.1113   34.7845   -3.2995 N   0  0  0  0  0  0  0  0  0  0  0  0
  -87.8031   35.1385   -3.2584 C   0  0  0  0  0  0  0  0  0  0  0  0
  -86.8744   34.4579   -2.5159 C   0  0  0  0  0  0  0  0  0  0  0  0
  1  2  1  0  0  0
  2  3  2  0  0  0
  3  4  1  0  0  0
  4  5  1  0  0  0
  5  6  2  0  0  0
  6  7  1  0  0  0
  7  8  2  0  0  0
  8  9  1  0  0  0
  9 10  2  0  0  0
  7 14  1  0  0  0
 14 15  2  0  0  0
 15 16  1  0  0  0
 16 17  2  0  0  0
 17 18  1  0  0  0
 18 19  2  0  0  0
 10  2  1  0  0  0
 19 14  1  0  0  0
 10  5  1  0  0  0
  1 11  1  0  0  0
  1 12  1  0  0  0
  4 13  1  0  0  0
M  END
> <minimizedAffinity>
-7.16762

> <CNNscore>
0.7834659815

> <CNNaffinity>
5.2145051956

> <CNN_VS>
4.0853872299

> <CNNaffinity_variance>
0.2972476482

$$$$
[H]c1nc([H])c([H])c(-c2c([H])c([H])c3c(N([H])[H])nn([H])c3c2[H])c1[H]


 19 21  0  0  0  0  0  0  0  0999 V2000
  -82.0736   32.2271    0.4923 N   0  0  0  0  0  0  0  0  0  0  0  0
  -83.3755   32.5049   -0.0117 C   0  0  0  0  0  0  0  0  0  0  0  0
  -83.8227   33.5961   -0.6612 N   0  0  0  0  0  0  0  0  0  0  0  0
  -85.1056   33.4700   -0.9666 N   0  0  0  0  0  0  0  0  0  0  0  0
  -85.5664   32.2709   -0.5243 C   0  0  0  0  0  0  0  0  0  0  0  0
  -86.7962   31.6469   -0.5764 C   0  0  0  0  0  0  0  0  0  0  0  0
  -86.9428   30.3917   -0.0179 C   0  0  0  0  0  0  0  0  0  0  0  0
  -85.8372   29.7866    0.5868 C   0  0  0  0  0  0  0  0  0  0  0  0
  -84.6157   30.4250    0.6297 C   0  0  0  0  0  0  0  0  0  0  0  0
  -84.4808   31.6664    0.0744 C   0  0  0  0  0  0  0  0  0  0  0  0
  -81.8867   31.8341    1.4415 H   0  0  0  0  0  0  0  0  0  0  0  0
  -81.2374   32.4184   -0.1021 H   0  0  0  0  0  0  0  0  0  0  0  0
  -85.7199   34.1410   -1.4627 H   0  0  0  0  0  0  0  0  0  0  0  0
  -88.2343   29.7137   -0.0618 C   0  0  0  0  0  0  0  0  0  0  0  0
  -89.4036   30.3087   -0.4633 C   0  0  0  0  0  0  0  0  0  0  0  0
  -90.5968   29.6242   -0.4866 C   0  0  0  0  0  0  0  0  0  0  0  0
  -90.6626   28.3395   -0.1150 N   0  0  0  0  0  0  0  0  0  0  0  0
  -89.5182   27.7326    0.2854 C   0  0  0  0  0  0  0  0  0  0  0  0
  -88.3107   28.3790    0.3228 C   0  0  0  0  0  0  0  0  0  0  0  0
  1  2  1  0  0  0
  2  3  2  0  0  0
  3  4  1  0  0  0
  4  5  1  0  0  0
  5  6  2  0  0  0
  6  7  1  0  0  0
  7  8  2  0  0  0
  8  9  1  0  0  0
  9 10  2  0  0  0
  7 14  1  0  0  0
 14 15  2  0  0  0
 15 16  1  0  0  0
 16 17  2  0  0  0
 17 18  1  0  0  0
 18 19  2  0  0  0
 10  2  1  0  0  0
 19 14  1  0  0  0
 10  5  1  0  0  0
  1 11  1  0  0  0
  1 12  1  0  0  0
  4 13  1  0  0  0
M  END
> <minimizedAffinity>
-6.89833

> <CNNscore>
0.7693909407

> <CNNaffinity>
5.5070490837

> <CNN_VS>
4.2370738983

> <CNNaffinity_variance>
0.1345301867

$$$$
[H]c1nc([H])c([H])c(-c2c([H])c([H])c3c(N([H])[H])nn([H])c3c2[H])c1[H]


 19 21  0  0  0  0  0  0  0  0999 V2000
  -82.0478   32.2794    0.4411 N   0  0  0  0  0  0  0  0  0  0  0  0
  -83.4351   32.1857    0.1368 C   0  0  0  0  0  0  0  0  0  0  0  0
  -84.2286   33.0656   -0.5025 N   0  0  0  0  0  0  0  0  0  0  0  0
  -85.4685   32.6069   -0.5876 N   0  0  0  0  0  0  0  0  0  0  0  0
  -85.5467   31.3853    0.0016 C   0  0  0  0  0  0  0  0  0  0  0  0
  -86.5752   30.4846    0.1903 C   0  0  0  0  0  0  0  0  0  0  0  0
  -86.3221   29.2956    0.8469 C   0  0  0  0  0  0  0  0  0  0  0  0
  -85.0265   29.0370    1.3036 C   0  0  0  0  0  0  0  0  0  0  0  0
  -84.0108   29.9486    1.1062 C   0  0  0  0  0  0  0  0  0  0  0  0
  -84.2711   31.1219    0.4556 C   0  0  0  0  0  0  0  0  0  0  0  0
  -81.6369   32.0429    1.3715 H   0  0  0  0  0  0  0  0  0  0  0  0
  -81.3783   32.6014   -0.2919 H   0  0  0  0  0  0  0  0  0  0  0  0
  -86.2948   33.0572   -1.0210 H   0  0  0  0  0  0  0  0  0  0  0  0
  -87.3951   28.3290    1.0572 C   0  0  0  0  0  0  0  0  0  0  0  0
  -88.6279   28.4042    0.4597 C   0  0  0  0  0  0  0  0  0  0  0  0
  -89.6066   27.4655    0.6917 C   0  0  0  0  0  0  0  0  0  0  0  0
  -89.3907   26.4334    1.5169 N   0  0  0  0  0  0  0  0  0  0  0  0
  -88.1788   26.3404    2.1176 C   0  0  0  0  0  0  0  0  0  0  0  0
  -87.1785   27.2540    1.9130 C   0  0  0  0  0  0  0  0  0  0  0  0
  1  2  1  0  0  0
  2  3  2  0  0  0
  3  4  1  0  0  0
  4  5  1  0  0  0
  5  6  2  0  0  0
  6  7  1  0  0  0
  7  8  2  0  0  0
  8  9  1  0  0  0
  9 10  2  0  0  0
  7 14  1  0  0  0
 14 15  2  0  0  0
 15 16  1  0  0  0
 16 17  2  0  0  0
 17 18  1  0  0  0
 18 19  2  0  0  0
 10  2  1  0  0  0
 19 14  1  0  0  0
 10  5  1  0  0  0
  1 11  1  0  0  0
  1 12  1  0  0  0
  4 13  1  0  0  0
M  END
> <minimizedAffinity>
-6.95122

> <CNNscore>
0.6804151535

> <CNNaffinity>
5.4748811722

> <CNN_VS>
3.7251920700

> <CNNaffinity_variance>
0.1425348818

$$$$
[H]c1nc([H])c([H])c(-c2c([H])c([H])c3c(N([H])[H])nn([H])c3c2[H])c1[H]


 19 21  0  0  0  0  0  0  0  0999 V2000
  -82.4063   27.7183    2.7809 N   0  0  0  0  0  0  0  0  0  0  0  0
  -83.7368   27.8523    2.2929 C   0  0  0  0  0  0  0  0  0  0  0  0
  -84.7681   26.9917    2.3830 N   0  0  0  0  0  0  0  0  0  0  0  0
  -85.8485   27.4880    1.7986 N   0  0  0  0  0  0  0  0  0  0  0  0
  -85.5711   28.7167    1.2900 C   0  0  0  0  0  0  0  0  0  0  0  0
  -86.3166   29.6507    0.5996 C   0  0  0  0  0  0  0  0  0  0  0  0
  -85.7244   30.8371    0.2117 C   0  0  0  0  0  0  0  0  0  0  0  0
  -84.3817   31.0595    0.5305 C   0  0  0  0  0  0  0  0  0  0  0  0
  -83.6519   30.1150    1.2211 C   0  0  0  0  0  0  0  0  0  0  0  0
  -84.2466   28.9445    1.6005 C   0  0  0  0  0  0  0  0  0  0  0  0
  -81.5541   27.9505    2.2240 H   0  0  0  0  0  0  0  0  0  0  0  0
  -82.2442   27.3690    3.7509 H   0  0  0  0  0  0  0  0  0  0  0  0
  -86.7876   27.0596    1.7081 H   0  0  0  0  0  0  0  0  0  0  0  0
  -86.4943   31.8385   -0.5193 C   0  0  0  0  0  0  0  0  0  0  0  0
  -85.9482   32.9497   -1.1106 C   0  0  0  0  0  0  0  0  0  0  0  0
  -86.7191   33.8649   -1.7893 C   0  0  0  0  0  0  0  0  0  0  0  0
  -88.0438   33.7043   -1.8997 N   0  0  0  0  0  0  0  0  0  0  0  0
  -88.6036   32.6126   -1.3224 C   0  0  0  0  0  0  0  0  0  0  0  0
  -87.8710   31.6786   -0.6382 C   0  0  0  0  0  0  0  0  0  0  0  0
  1  2  1  0  0  0
  2  3  2  0  0  0
  3  4  1  0  0  0
  4  5  1  0  0  0
  5  6  2  0  0  0
  6  7  1  0  0  0
  7  8  2  0  0  0
  8  9  1  0  0  0
  9 10  2  0  0  0
  7 14  1  0  0  0
 14 15  2  0  0  0
 15 16  1  0  0  0
 16 17  2  0  0  0
 17 18  1  0  0  0
 18 19  2  0  0  0
 10  2  1  0  0  0
 19 14  1  0  0  0
 10  5  1  0  0  0
  1 11  1  0  0  0
  1 12  1  0  0  0
  4 13  1  0  0  0
M  END
> <minimizedAffinity>
-7.37959

> <CNNscore>
0.5826680064

> <CNNaffinity>
5.3344473839

> <CNN_VS>
3.1082117558

> <CNNaffinity_variance>
0.1404665560

$$$$
[H]c1nc([H])c([H])c(-c2c([H])c([H])c3c(N([H])[H])nn([H])c3c2[H])c1[H]


 19 21  0  0  0  0  0  0  0  0999 V2000
  -90.2028   34.5113   -3.4431 N   0  0  0  0  0  0  0  0  0  0  0  0
  -88.7822   34.4722   -3.3624 C   0  0  0  0  0  0  0  0  0  0  0  0
  -87.8675   35.0790   -4.1420 N   0  0  0  0  0  0  0  0  0  0  0  0
  -86.6389   34.7914   -3.7383 N   0  0  0  0  0  0  0  0  0  0  0  0
  -86.6921   33.9695   -2.6579 C   0  0  0  0  0  0  0  0  0  0  0  0
  -85.7299   33.3804   -1.8630 C   0  0  0  0  0  0  0  0  0  0  0  0
  -86.1211   32.5749   -0.8109 C   0  0  0  0  0  0  0  0  0  0  0  0
  -87.4857   32.3781   -0.5800 C   0  0  0  0  0  0  0  0  0  0  0  0
  -88.4335   32.9748   -1.3846 C   0  0  0  0  0  0  0  0  0  0  0  0
  -88.0365   33.7698   -2.4229 C   0  0  0  0  0  0  0  0  0  0  0  0
  -90.8151   33.6687   -3.3691 H   0  0  0  0  0  0  0  0  0  0  0  0
  -90.6876   35.4246   -3.5844 H   0  0  0  0  0  0  0  0  0  0  0  0
  -85.7373   35.1091   -4.1380 H   0  0  0  0  0  0  0  0  0  0  0  0
  -85.1204   31.9422    0.0424 C   0  0  0  0  0  0  0  0  0  0  0  0
  -85.4142   31.0550    1.0469 C   0  0  0  0  0  0  0  0  0  0  0  0
  -84.4320   30.4855    1.8240 C   0  0  0  0  0  0  0  0  0  0  0  0
  -83.1403   30.7782    1.6273 N   0  0  0  0  0  0  0  0  0  0  0  0
  -82.8284   31.6529    0.6394 C   0  0  0  0  0  0  0  0  0  0  0  0
  -83.7764   32.2412   -0.1559 C   0  0  0  0  0  0  0  0  0  0  0  0
  1  2  1  0  0  0
  2  3  2  0  0  0
  3  4  1  0  0  0
  4  5  1  0  0  0
  5  6  2  0  0  0
  6  7  1  0  0  0
  7  8  2  0  0  0
  8  9  1  0  0  0
  9 10  2  0  0  0
  7 14  1  0  0  0
 14 15  2  0  0  0
 15 16  1  0  0  0
 16 17  2  0  0  0
 17 18  1  0  0  0
 18 19  2  0  0  0
 10  2  1  0  0  0
 19 14  1  0  0  0
 10  5  1  0  0  0
  1 11  1  0  0  0
  1 12  1  0  0  0
  4 13  1  0  0  0
M  END
> <minimizedAffinity>
-7.48407

> <CNNscore>
0.4542427361

> <CNNaffinity>
4.9322886467

> <CNN_VS>
2.2404563427

> <CNNaffinity_variance>
0.1485671848

$$$$
[H]c1nc([H])c([H])c(-c2c([H])c([H])c3c(N([H])[H])nn([H])c3c2[H])c1[H]


 19 21  0  0  0  0  0  0  0  0999 V2000
  -82.4289   29.0160    2.0995 N   0  0  0  0  0  0  0  0  0  0  0  0
  -83.0602   30.1256    1.4700 C   0  0  0  0  0  0  0  0  0  0  0  0
  -82.5829   31.3650    1.2496 N   0  0  0  0  0  0  0  0  0  0  0  0
  -83.4838   32.1139    0.6310 N   0  0  0  0  0  0  0  0  0  0  0  0
  -84.6117   31.3885    0.4138 C   0  0  0  0  0  0  0  0  0  0  0  0
  -85.8261   31.6728   -0.1771 C   0  0  0  0  0  0  0  0  0  0  0  0
  -86.7940   30.6890   -0.2425 C   0  0  0  0  0  0  0  0  0  0  0  0
  -86.5153   29.4285    0.2936 C   0  0  0  0  0  0  0  0  0  0  0  0
  -85.2961   29.1621    0.8803 C   0  0  0  0  0  0  0  0  0  0  0  0
  -84.3452   30.1418    0.9403 C   0  0  0  0  0  0  0  0  0  0  0  0
  -82.8903   28.4098    2.8137 H   0  0  0  0  0  0  0  0  0  0  0  0
  -81.4454   28.7710    1.8505 H   0  0  0  0  0  0  0  0  0  0  0  0
  -83.4053   33.1028    0.3318 H   0  0  0  0  0  0  0  0  0  0  0  0
  -88.0851   30.9680   -0.8630 C   0  0  0  0  0  0  0  0  0  0  0  0
  -88.3759   32.1177   -1.5531 C   0  0  0  0  0  0  0  0  0  0  0  0
  -89.6109   32.3323   -2.1202 C   0  0  0  0  0  0  0  0  0  0  0  0
  -90.5845   31.4188   -2.0193 N   0  0  0  0  0  0  0  0  0  0  0  0
  -90.3177   30.2753   -1.3413 C   0  0  0  0  0  0  0  0  0  0  0  0
  -89.1017   30.0238   -0.7625 C   0  0  0  0  0  0  0  0  0  0  0  0
  1  2  1  0  0  0
  2  3  2  0  0  0
  3  4  1  0  0  0
  4  5  1  0  0  0
  5  6  2  0  0  0
  6  7  1  0  0  0
  7  8  2  0  0  0
  8  9  1  0  0  0
  9 10  2  0  0  0
  7 14  1  0  0  0
 14 15  2  0  0  0
 15 16  1  0  0  0
 16 17  2  0  0  0
 17 18  1  0  0  0
 18 19  2  0  0  0
 10  2  1  0  0  0
 19 14  1  0  0  0
 10  5  1  0  0  0
  1 11  1  0  0  0
  1 12  1  0  0  0
  4 13  1  0  0  0
M  END
> <minimizedAffinity>
-6.84737

> <CNNscore>
0.4227429330

> <CNNaffinity>
5.2854394913

> <CNN_VS>
2.2343821526

> <CNNaffinity_variance>
0.2291220725

$$$$
[H]c1nc([H])c([H])c(-c2c([H])c([H])c3c(N([H])[H])nn([H])c3c2[H])c1[H]


 19 21  0  0  0  0  0  0  0  0999 V2000
  -88.2095   25.8505    2.6487 N   0  0  0  0  0  0  0  0  0  0  0  0
  -88.2106   26.7930    1.5821 C   0  0  0  0  0  0  0  0  0  0  0  0
  -89.0575   26.9008    0.5411 N   0  0  0  0  0  0  0  0  0  0  0  0
  -88.7185   27.9164   -0.2391 N   0  0  0  0  0  0  0  0  0  0  0  0
  -87.6159   28.5315    0.2624 C   0  0  0  0  0  0  0  0  0  0  0  0
  -86.8632   29.6143   -0.1446 C   0  0  0  0  0  0  0  0  0  0  0  0
  -85.7698   29.9997    0.6069 C   0  0  0  0  0  0  0  0  0  0  0  0
  -85.4550   29.2794    1.7628 C   0  0  0  0  0  0  0  0  0  0  0  0
  -86.2184   28.1999    2.1545 C   0  0  0  0  0  0  0  0  0  0  0  0
  -87.2980   27.8264    1.4045 C   0  0  0  0  0  0  0  0  0  0  0  0
  -87.3561   25.3532    2.9875 H   0  0  0  0  0  0  0  0  0  0  0  0
  -89.1024   25.6241    3.1395 H   0  0  0  0  0  0  0  0  0  0  0  0
  -89.1779   28.2439   -1.1081 H   0  0  0  0  0  0  0  0  0  0  0  0
  -84.9601   31.1418    0.1948 C   0  0  0  0  0  0  0  0  0  0  0  0
  -83.5916   31.1873    0.2813 C   0  0  0  0  0  0  0  0  0  0  0  0
  -82.8741   32.2899   -0.1216 C   0  0  0  0  0  0  0  0  0  0  0  0
  -83.4900   33.3702   -0.6180 N   0  0  0  0  0  0  0  0  0  0  0  0
  -84.8424   33.3457   -0.7120 C   0  0  0  0  0  0  0  0  0  0  0  0
  -85.5928   32.2678   -0.3219 C   0  0  0  0  0  0  0  0  0  0  0  0
  1  2  1  0  0  0
  2  3  2  0  0  0
  3  4  1  0  0  0
  4  5  1  0  0  0
  5  6  2  0  0  0
  6  7  1  0  0  0
  7  8  2  0  0  0
  8  9  1  0  0  0
  9 10  2  0  0  0
  7 14  1  0  0  0
 14 15  2  0  0  0
 15 16  1  0  0  0
 16 17  2  0  0  0
 17 18  1  0  0  0
 18 19  2  0  0  0
 10  2  1  0  0  0
 19 14  1  0  0  0
 10  5  1  0  0  0
  1 11  1  0  0  0
  1 12  1  0  0  0
  4 13  1  0  0  0
M  END
> <minimizedAffinity>
-7.30734

> <CNNscore>
0.4119049609

> <CNNaffinity>
5.2965841293

> <CNN_VS>
2.1816892624

> <CNNaffinity_variance>
0.0873306841

$$$$
[H]c1nc([H])c([H])c(-c2c([H])c([H])c3c(N([H])[H])nn([H])c3c2[H])c1[H]


 19 21  0  0  0  0  0  0  0  0999 V2000
  -83.9373   27.6459    2.5858 N   0  0  0  0  0  0  0  0  0  0  0  0
  -83.7135   28.9001    1.9509 C   0  0  0  0  0  0  0  0  0  0  0  0
  -82.5892   29.6386    1.8960 N   0  0  0  0  0  0  0  0  0  0  0  0
  -82.7892   30.7509    1.2049 N   0  0  0  0  0  0  0  0  0  0  0  0
  -84.0747   30.7939    0.7675 C   0  0  0  0  0  0  0  0  0  0  0  0
  -84.7957   31.7047    0.0224 C   0  0  0  0  0  0  0  0  0  0  0  0
  -86.1237   31.4484   -0.2601 C   0  0  0  0  0  0  0  0  0  0  0  0
  -86.7021   30.2692    0.2186 C   0  0  0  0  0  0  0  0  0  0  0  0
  -85.9664   29.3703    0.9617 C   0  0  0  0  0  0  0  0  0  0  0  0
  -84.6536   29.6328    1.2358 C   0  0  0  0  0  0  0  0  0  0  0  0
  -84.7715   27.4310    3.1760 H   0  0  0  0  0  0  0  0  0  0  0  0
  -83.2413   26.8768    2.4710 H   0  0  0  0  0  0  0  0  0  0  0  0
  -82.1157   31.5096    0.9939 H   0  0  0  0  0  0  0  0  0  0  0  0
  -86.9047   32.3979   -1.0463 C   0  0  0  0  0  0  0  0  0  0  0  0
  -86.3590   33.4005   -1.8077 C   0  0  0  0  0  0  0  0  0  0  0  0
  -87.1408   34.2708   -2.5318 C   0  0  0  0  0  0  0  0  0  0  0  0
  -88.4759   34.1711   -2.5209 N   0  0  0  0  0  0  0  0  0  0  0  0
  -89.0354   33.1869   -1.7748 C   0  0  0  0  0  0  0  0  0  0  0  0
  -88.2924   32.3008   -1.0401 C   0  0  0  0  0  0  0  0  0  0  0  0
  1  2  1  0  0  0
  2  3  2  0  0  0
  3  4  1  0  0  0
  4  5  1  0  0  0
  5  6  2  0  0  0
  6  7  1  0  0  0
  7  8  2  0  0  0
  8  9  1  0  0  0
  9 10  2  0  0  0
  7 14  1  0  0  0
 14 15  2  0  0  0
 15 16  1  0  0  0
 16 17  2  0  0  0
 17 18  1  0  0  0
 18 19  2  0  0  0
 10  2  1  0  0  0
 19 14  1  0  0  0
 10  5  1  0  0  0
  1 11  1  0  0  0
  1 12  1  0  0  0
  4 13  1  0  0  0
M  END
> <minimizedAffinity>
-7.39409

> <CNNscore>
0.3966431022

> <CNNaffinity>
5.1695203781

> <CNN_VS>
2.0504546165

> <CNNaffinity_variance>
0.1639907509

$$$$
[H]c1nc([H])c([H])c(-c2c([H])c([H])c3c(N([H])[H])nn([H])c3c2[H])c1[H]


 19 21  0  0  0  0  0  0  0  0999 V2000
  -89.2501   33.3339   -2.0618 N   0  0  0  0  0  0  0  0  0  0  0  0
  -87.8635   33.2827   -1.7444 C   0  0  0  0  0  0  0  0  0  0  0  0
  -86.8806   34.1397   -2.0791 N   0  0  0  0  0  0  0  0  0  0  0  0
  -85.7176   33.7380   -1.5880 N   0  0  0  0  0  0  0  0  0  0  0  0
  -85.8868   32.5803   -0.8975 C   0  0  0  0  0  0  0  0  0  0  0  0
  -85.0279   31.7534   -0.2025 C   0  0  0  0  0  0  0  0  0  0  0  0
  -85.5262   30.6177    0.4066 C   0  0  0  0  0  0  0  0  0  0  0  0
  -86.8915   30.3369    0.3015 C   0  0  0  0  0  0  0  0  0  0  0  0
  -87.7352   31.1747   -0.3970 C   0  0  0  0  0  0  0  0  0  0  0  0
  -87.2328   32.2955   -0.9961 C   0  0  0  0  0  0  0  0  0  0  0  0
  -89.8014   32.5154   -2.4033 H   0  0  0  0  0  0  0  0  0  0  0  0
  -89.7719   34.2314   -1.9558 H   0  0  0  0  0  0  0  0  0  0  0  0
  -84.7887   34.1880   -1.6789 H   0  0  0  0  0  0  0  0  0  0  0  0
  -84.6357   29.7294    1.1465 C   0  0  0  0  0  0  0  0  0  0  0  0
  -83.2951   29.9585    1.3278 C   0  0  0  0  0  0  0  0  0  0  0  0
  -82.4980   29.0882    2.0350 C   0  0  0  0  0  0  0  0  0  0  0  0
  -83.0053   27.9745    2.5783 N   0  0  0  0  0  0  0  0  0  0  0  0
  -84.3282   27.7293    2.4108 C   0  0  0  0  0  0  0  0  0  0  0  0
  -85.1552   28.5704    1.7139 C   0  0  0  0  0  0  0  0  0  0  0  0
  1  2  1  0  0  0
  2  3  2  0  0  0
  3  4  1  0  0  0
  4  5  1  0  0  0
  5  6  2  0  0  0
  6  7  1  0  0  0
  7  8  2  0  0  0
  8  9  1  0  0  0
  9 10  2  0  0  0
  7 14  1  0  0  0
 14 15  2  0  0  0
 15 16  1  0  0  0
 16 17  2  0  0  0
 17 18  1  0  0  0
 18 19  2  0  0  0
 10  2  1  0  0  0
 19 14  1  0  0  0
 10  5  1  0  0  0
  1 11  1  0  0  0
  1 12  1  0  0  0
  4 13  1  0  0  0
M  END
> <minimizedAffinity>
-7.53904

> <CNNscore>
0.3772331178

> <CNNaffinity>
5.0654954910

> <CNN_VS>
1.9108726978

> <CNNaffinity_variance>
0.1756450236

$$$$
[H]c1c([H])c([H])c2c(c1[H])c1c3c(c4c5c([H])c([H])c([H])c([H])c5n5c4c1n2[C@@]1(C([H])([H])[H])O[C@]5([H])C([H])([H])[C@]([H])(N([H])C([H])([H])[H])[C@]1([H])OC([H])([H])[H])C(=O)N([H])C3([H])[H]


 37 44  0  0  0  0  0  0  0  0999 V2000
  -89.8006   28.8701   -2.2529 C   0  0  0  0  0  0  0  0  0  0  0  0
  -90.2694   30.2914   -2.4955 C   0  0  0  0  0  0  0  0  0  0  0  0
  -90.2240   31.1225   -1.2445 C   0  0  0  0  0  0  0  0  0  0  0  0
  -90.4687   30.5213   -0.0830 O   0  0  0  0  0  0  0  0  0  0  0  0
  -89.9761   29.2355    0.1627 C   0  0  0  0  0  0  0  0  0  0  0  0
  -90.7456   28.8242    1.4048 C   0  0  0  0  0  0  0  0  0  0  0  0
  -90.4593   28.3970   -1.0019 C   0  0  0  0  0  0  0  0  0  0  0  0
  -88.5455   29.2502    0.3616 N   0  0  0  0  0  0  0  0  0  0  0  0
  -87.8521   28.3143    1.0553 C   0  0  0  0  0  0  0  0  0  0  0  0
  -88.1960   27.1373    1.6488 C   0  0  0  0  0  0  0  0  0  0  0  0
  -87.2750   26.3228    2.3119 C   0  0  0  0  0  0  0  0  0  0  0  0
  -85.9590   26.6877    2.3901 C   0  0  0  0  0  0  0  0  0  0  0  0
  -85.6015   27.8682    1.7959 C   0  0  0  0  0  0  0  0  0  0  0  0
  -86.5014   28.6794    1.1394 C   0  0  0  0  0  0  0  0  0  0  0  0
  -86.3798   29.8693    0.4704 C   0  0  0  0  0  0  0  0  0  0  0  0
  -85.2937   30.6851    0.2303 C   0  0  0  0  0  0  0  0  0  0  0  0
  -83.8701   30.5505    0.6255 C   0  0  0  0  0  0  0  0  0  0  0  0
  -83.2259   31.7044    0.0937 N   0  0  0  0  0  0  0  0  0  0  0  0
  -84.1772   32.5290   -0.6061 C   0  0  0  0  0  0  0  0  0  0  0  0
  -83.8372   33.5858   -1.1526 O   0  0  0  0  0  0  0  0  0  0  0  0
  -85.4594   31.8659   -0.5031 C   0  0  0  0  0  0  0  0  0  0  0  0
  -86.7362   32.1740   -0.9711 C   0  0  0  0  0  0  0  0  0  0  0  0
  -87.2622   33.2119   -1.7375 C   0  0  0  0  0  0  0  0  0  0  0  0
  -86.7162   34.3228   -2.2855 C   0  0  0  0  0  0  0  0  0  0  0  0
  -87.5416   35.1912   -3.0220 C   0  0  0  0  0  0  0  0  0  0  0  0
  -88.8719   34.9166   -3.1806 C   0  0  0  0  0  0  0  0  0  0  0  0
  -89.4460   33.7934   -2.6319 C   0  0  0  0  0  0  0  0  0  0  0  0
  -88.6227   32.9472   -1.9096 C   0  0  0  0  0  0  0  0  0  0  0  0
  -88.9165   31.8028   -1.2778 N   0  0  0  0  0  0  0  0  0  0  0  0
  -87.8048   31.3299   -0.7098 C   0  0  0  0  0  0  0  0  0  0  0  0
  -87.6054   30.1870    0.0146 C   0  0  0  0  0  0  0  0  0  0  0  0
  -82.2119   31.9049    0.2056 H   0  0  0  0  0  0  0  0  0  0  0  0
  -90.0640   26.6839   -3.3119 C   0  0  0  0  0  0  0  0  0  0  0  0
  -89.8450   28.0695   -3.3899 N   0  0  0  0  0  0  0  0  0  0  0  0
  -89.1497   28.2852   -4.1353 H   0  0  0  0  0  0  0  0  0  0  0  0
  -91.8131   28.6696   -1.1138 O   0  0  0  0  0  0  0  0  0  0  0  0
  -92.6554   27.6633   -1.4446 C   0  0  0  0  0  0  0  0  0  0  0  0
 33 34  1  0  0  0
 34  1  1  0  0  0
  1  2  1  0  0  0
  2  3  1  0  0  0
  3  4  1  0  0  0
  4  5  1  0  0  0
  5  6  1  0  0  0
  5  7  1  0  0  0
  7 36  1  0  0  0
 36 37  1  0  0  0
  5  8  1  0  0  0
  8  9  1  0  0  0
  9 10  2  0  0  0
 10 11  1  0  0  0
 11 12  2  0  0  0
 12 13  1  0  0  0
 13 14  2  0  0  0
 14 15  1  0  0  0
 15 16  2  0  0  0
 16 17  1  0  0  0
 17 18  1  0  0  0
 18 19  1  0  0  0
 19 20  2  0  0  0
 19 21  1  0  0  0
 21 22  2  0  0  0
 22 23  1  0  0  0
 23 24  2  0  0  0
 24 25  1  0  0  0
 25 26  2  0  0  0
 26 27  1  0  0  0
 27 28  2  0  0  0
 28 29  1  0  0  0
 29 30  1  0  0  0
 30 31  2  0  0  0
  7  1  1  0  0  0
 31  8  1  0  0  0
 29  3  1  0  0  0
 14  9  1  0  0  0
 31 15  1  0  0  0
 21 16  1  0  0  0
 30 22  1  0  0  0
 28 23  1  0  0  0
 34 35  1  0  0  0
 18 32  1  0  0  0
M  END
> <minimizedAffinity>
-9.98430

> <CNNscore>
0.3944109380

> <CNNaffinity>
6.6566886902

> <CNN_VS>
2.6254708767

> <CNNaffinity_variance>
0.1509395391

$$$$
[H]c1c([H])c([H])c2c(c1[H])c1c3c(c4c5c([H])c([H])c([H])c([H])c5n5c4c1n2[C@@]1(C([H])([H])[H])O[C@]5([H])C([H])([H])[C@]([H])(N([H])C([H])([H])[H])[C@]1([H])OC([H])([H])[H])C(=O)N([H])C3([H])[H]


 37 44  0  0  0  0  0  0  0  0999 V2000
  -88.5592   26.8832   -0.8607 C   0  0  0  0  0  0  0  0  0  0  0  0
  -89.8792   27.5607   -1.1726 C   0  0  0  0  0  0  0  0  0  0  0  0
  -90.1626   28.7029   -0.2383 C   0  0  0  0  0  0  0  0  0  0  0  0
  -89.7350   28.6063    1.0180 O   0  0  0  0  0  0  0  0  0  0  0  0
  -88.4860   28.0418    1.2960 C   0  0  0  0  0  0  0  0  0  0  0  0
  -88.5526   27.8279    2.7974 C   0  0  0  0  0  0  0  0  0  0  0  0
  -88.5025   26.6889    0.6164 C   0  0  0  0  0  0  0  0  0  0  0  0
  -87.4116   28.9207    0.8963 N   0  0  0  0  0  0  0  0  0  0  0  0
  -86.1631   28.9048    1.4244 C   0  0  0  0  0  0  0  0  0  0  0  0
  -85.5344   28.1019    2.3276 C   0  0  0  0  0  0  0  0  0  0  0  0
  -84.2044   28.2871    2.7127 C   0  0  0  0  0  0  0  0  0  0  0  0
  -83.4659   29.3084    2.1813 C   0  0  0  0  0  0  0  0  0  0  0  0
  -84.0871   30.1211    1.2713 C   0  0  0  0  0  0  0  0  0  0  0  0
  -85.3982   29.9478    0.8843 C   0  0  0  0  0  0  0  0  0  0  0  0
  -86.2120   30.6069    0.0002 C   0  0  0  0  0  0  0  0  0  0  0  0
  -85.9958   31.6997   -0.8133 C   0  0  0  0  0  0  0  0  0  0  0  0
  -84.7927   32.5465   -1.0050 C   0  0  0  0  0  0  0  0  0  0  0  0
  -85.1752   33.5229   -1.9692 N   0  0  0  0  0  0  0  0  0  0  0  0
  -86.5407   33.3135   -2.3769 C   0  0  0  0  0  0  0  0  0  0  0  0
  -87.0849   34.0460   -3.2126 O   0  0  0  0  0  0  0  0  0  0  0  0
  -87.0257   32.1678   -1.6377 C   0  0  0  0  0  0  0  0  0  0  0  0
  -88.2484   31.4983   -1.6045 C   0  0  0  0  0  0  0  0  0  0  0  0
  -89.4545   31.6507   -2.2852 C   0  0  0  0  0  0  0  0  0  0  0  0
  -89.8836   32.5352   -3.2158 C   0  0  0  0  0  0  0  0  0  0  0  0
  -91.1924   32.4119   -3.7157 C   0  0  0  0  0  0  0  0  0  0  0  0
  -92.0154   31.4155   -3.2683 C   0  0  0  0  0  0  0  0  0  0  0  0
  -91.5986   30.5069   -2.3234 C   0  0  0  0  0  0  0  0  0  0  0  0
  -90.3085   30.6394   -1.8397 C   0  0  0  0  0  0  0  0  0  0  0  0
  -89.6575   29.9035   -0.9289 N   0  0  0  0  0  0  0  0  0  0  0  0
  -88.4294   30.4032   -0.7734 C   0  0  0  0  0  0  0  0  0  0  0  0
  -87.4012   29.9775    0.0218 C   0  0  0  0  0  0  0  0  0  0  0  0
  -84.5437   34.2724   -2.3164 H   0  0  0  0  0  0  0  0  0  0  0  0
  -89.2516   24.8631   -2.0482 C   0  0  0  0  0  0  0  0  0  0  0  0
  -88.2743   25.8104   -1.6995 N   0  0  0  0  0  0  0  0  0  0  0  0
  -87.3525   25.3454   -1.5594 H   0  0  0  0  0  0  0  0  0  0  0  0
  -89.6932   26.0970    1.0058 O   0  0  0  0  0  0  0  0  0  0  0  0
  -89.6642   24.8366    1.4980 C   0  0  0  0  0  0  0  0  0  0  0  0
 33 34  1  0  0  0
 34  1  1  0  0  0
  1  2  1  0  0  0
  2  3  1  0  0  0
  3  4  1  0  0  0
  4  5  1  0  0  0
  5  6  1  0  0  0
  5  7  1  0  0  0
  7 36  1  0  0  0
 36 37  1  0  0  0
  5  8  1  0  0  0
  8  9  1  0  0  0
  9 10  2  0  0  0
 10 11  1  0  0  0
 11 12  2  0  0  0
 12 13  1  0  0  0
 13 14  2  0  0  0
 14 15  1  0  0  0
 15 16  2  0  0  0
 16 17  1  0  0  0
 17 18  1  0  0  0
 18 19  1  0  0  0
 19 20  2  0  0  0
 19 21  1  0  0  0
 21 22  2  0  0  0
 22 23  1  0  0  0
 23 24  2  0  0  0
 24 25  1  0  0  0
 25 26  2  0  0  0
 26 27  1  0  0  0
 27 28  2  0  0  0
 28 29  1  0  0  0
 29 30  1  0  0  0
 30 31  2  0  0  0
  7  1  1  0  0  0
 31  8  1  0  0  0
 29  3  1  0  0  0
 14  9  1  0  0  0
 31 15  1  0  0  0
 21 16  1  0  0  0
 30 22  1  0  0  0
 28 23  1  0  0  0
 34 35  1  0  0  0
 18 32  1  0  0  0
M  END
> <minimizedAffinity>
-10.56194

> <CNNscore>
0.3645299673

> <CNNaffinity>
6.6816582680

> <CNN_VS>
2.4356646538

> <CNNaffinity_variance>
0.5122793913

$$$$
[H]c1c([H])c([H])c2c(c1[H])c1c3c(c4c5c([H])c([H])c([H])c([H])c5n5c4c1n2[C@@]1(C([H])([H])[H])O[C@]5([H])C([H])([H])[C@]([H])(N([H])C([H])([H])[H])[C@]1([H])OC([H])([H])[H])C(=O)N([H])C3([H])[H]


 37 44  0  0  0  0  0  0  0  0999 V2000
  -84.8596   28.1042    1.8041 C   0  0  0  0  0  0  0  0  0  0  0  0
  -86.0823   27.4268    2.3911 C   0  0  0  0  0  0  0  0  0  0  0  0
  -87.2104   28.3934    2.6159 C   0  0  0  0  0  0  0  0  0  0  0  0
  -86.9067   29.6445    2.9522 O   0  0  0  0  0  0  0  0  0  0  0  0
  -85.8175   30.2895    2.3576 C   0  0  0  0  0  0  0  0  0  0  0  0
  -85.6391   31.5097    3.2428 C   0  0  0  0  0  0  0  0  0  0  0  0
  -84.6408   29.3617    2.5747 C   0  0  0  0  0  0  0  0  0  0  0  0
  -86.0936   30.6248    0.9800 N   0  0  0  0  0  0  0  0  0  0  0  0
  -85.4853   31.6208    0.2901 C   0  0  0  0  0  0  0  0  0  0  0  0
  -84.4686   32.4801    0.5794 C   0  0  0  0  0  0  0  0  0  0  0  0
  -84.0014   33.4367   -0.3250 C   0  0  0  0  0  0  0  0  0  0  0  0
  -84.5630   33.5469   -1.5674 C   0  0  0  0  0  0  0  0  0  0  0  0
  -85.5849   32.6874   -1.8698 C   0  0  0  0  0  0  0  0  0  0  0  0
  -86.0537   31.7402   -0.9856 C   0  0  0  0  0  0  0  0  0  0  0  0
  -87.0303   30.7820   -1.0654 C   0  0  0  0  0  0  0  0  0  0  0  0
  -87.9044   30.4384   -2.0756 C   0  0  0  0  0  0  0  0  0  0  0  0
  -88.0888   31.0020   -3.4356 C   0  0  0  0  0  0  0  0  0  0  0  0
  -89.1438   30.2393   -4.0141 N   0  0  0  0  0  0  0  0  0  0  0  0
  -89.6066   29.2417   -3.0839 C   0  0  0  0  0  0  0  0  0  0  0  0
  -90.5205   28.4604   -3.3763 O   0  0  0  0  0  0  0  0  0  0  0  0
  -88.8132   29.3913   -1.8829 C   0  0  0  0  0  0  0  0  0  0  0  0
  -88.7967   28.7251   -0.6581 C   0  0  0  0  0  0  0  0  0  0  0  0
  -89.5077   27.6487   -0.1316 C   0  0  0  0  0  0  0  0  0  0  0  0
  -90.5029   26.8724   -0.6207 C   0  0  0  0  0  0  0  0  0  0  0  0
  -91.0163   25.8406    0.1854 C   0  0  0  0  0  0  0  0  0  0  0  0
  -90.5176   25.6269    1.4407 C   0  0  0  0  0  0  0  0  0  0  0  0
  -89.5067   26.4044    1.9561 C   0  0  0  0  0  0  0  0  0  0  0  0
  -89.0104   27.4163    1.1526 C   0  0  0  0  0  0  0  0  0  0  0  0
  -88.0422   28.3082    1.4016 N   0  0  0  0  0  0  0  0  0  0  0  0
  -87.9037   29.0987    0.3348 C   0  0  0  0  0  0  0  0  0  0  0  0
  -87.0336   30.1301    0.1118 C   0  0  0  0  0  0  0  0  0  0  0  0
  -89.5132   30.3961   -4.9733 H   0  0  0  0  0  0  0  0  0  0  0  0
  -82.6201   27.3087    2.3718 C   0  0  0  0  0  0  0  0  0  0  0  0
  -83.7905   27.2380    1.5979 N   0  0  0  0  0  0  0  0  0  0  0  0
  -83.5568   27.0191    0.6064 H   0  0  0  0  0  0  0  0  0  0  0  0
  -84.6727   29.0373    3.9213 O   0  0  0  0  0  0  0  0  0  0  0  0
  -84.6711   30.0376    4.8330 C   0  0  0  0  0  0  0  0  0  0  0  0
 33 34  1  0  0  0
 34  1  1  0  0  0
  1  2  1  0  0  0
  2  3  1  0  0  0
  3  4  1  0  0  0
  4  5  1  0  0  0
  5  6  1  0  0  0
  5  7  1  0  0  0
  7 36  1  0  0  0
 36 37  1  0  0  0
  5  8  1  0  0  0
  8  9  1  0  0  0
  9 10  2  0  0  0
 10 11  1  0  0  0
 11 12  2  0  0  0
 12 13  1  0  0  0
 13 14  2  0  0  0
 14 15  1  0  0  0
 15 16  2  0  0  0
 16 17  1  0  0  0
 17 18  1  0  0  0
 18 19  1  0  0  0
 19 20  2  0  0  0
 19 21  1  0  0  0
 21 22  2  0  0  0
 22 23  1  0  0  0
 23 24  2  0  0  0
 24 25  1  0  0  0
 25 26  2  0  0  0
 26 27  1  0  0  0
 27 28  2  0  0  0
 28 29  1  0  0  0
 29 30  1  0  0  0
 30 31  2  0  0  0
  7  1  1  0  0  0
 31  8  1  0  0  0
 29  3  1  0  0  0
 14  9  1  0  0  0
 31 15  1  0  0  0
 21 16  1  0  0  0
 30 22  1  0  0  0
 28 23  1  0  0  0
 34 35  1  0  0  0
 18 32  1  0  0  0
M  END
> <minimizedAffinity>
0.10051

> <CNNscore>
0.2018097192

> <CNNaffinity>
6.4126372337

> <CNN_VS>
1.2941324711

> <CNNaffinity_variance>
0.0518270507

$$$$
[H]c1c([H])c([H])c2c(c1[H])c1c3c(c4c5c([H])c([H])c([H])c([H])c5n5c4c1n2[C@@]1(C([H])([H])[H])O[C@]5([H])C([H])([H])[C@]([H])(N([H])C([H])([H])[H])[C@]1([H])OC([H])([H])[H])C(=O)N([H])C3([H])[H]


 37 44  0  0  0  0  0  0  0  0999 V2000
  -86.1674   27.4253    1.3086 C   0  0  0  0  0  0  0  0  0  0  0  0
  -86.9872   26.9123    2.4763 C   0  0  0  0  0  0  0  0  0  0  0  0
  -88.3459   27.5511    2.5365 C   0  0  0  0  0  0  0  0  0  0  0  0
  -88.4637   28.8137    2.1336 O   0  0  0  0  0  0  0  0  0  0  0  0
  -87.7572   29.2652    1.0141 C   0  0  0  0  0  0  0  0  0  0  0  0
  -87.9108   30.7717    1.1184 C   0  0  0  0  0  0  0  0  0  0  0  0
  -86.3113   28.9091    1.2881 C   0  0  0  0  0  0  0  0  0  0  0  0
  -88.3061   28.7231   -0.2071 N   0  0  0  0  0  0  0  0  0  0  0  0
  -88.1814   29.2938   -1.4305 C   0  0  0  0  0  0  0  0  0  0  0  0
  -87.5059   30.3812   -1.8964 C   0  0  0  0  0  0  0  0  0  0  0  0
  -87.5253   30.7707   -3.2378 C   0  0  0  0  0  0  0  0  0  0  0  0
  -88.2420   30.0539   -4.1562 C   0  0  0  0  0  0  0  0  0  0  0  0
  -88.9239   28.9581   -3.6996 C   0  0  0  0  0  0  0  0  0  0  0  0
  -88.9119   28.5648   -2.3790 C   0  0  0  0  0  0  0  0  0  0  0  0
  -89.4888   27.5207   -1.7041 C   0  0  0  0  0  0  0  0  0  0  0  0
  -90.3055   26.4911   -2.1230 C   0  0  0  0  0  0  0  0  0  0  0  0
  -90.8477   26.1641   -3.4647 C   0  0  0  0  0  0  0  0  0  0  0  0
  -91.6295   24.9887   -3.2735 N   0  0  0  0  0  0  0  0  0  0  0  0
  -91.5882   24.5811   -1.8926 C   0  0  0  0  0  0  0  0  0  0  0  0
  -92.1963   23.5790   -1.4965 O   0  0  0  0  0  0  0  0  0  0  0  0
  -90.7536   25.5390   -1.1997 C   0  0  0  0  0  0  0  0  0  0  0  0
  -90.3479   25.6707    0.1279 C   0  0  0  0  0  0  0  0  0  0  0  0
  -90.5600   24.9224    1.2839 C   0  0  0  0  0  0  0  0  0  0  0  0
  -91.2702   23.7984    1.5383 C   0  0  0  0  0  0  0  0  0  0  0  0
  -91.2796   23.2841    2.8472 C   0  0  0  0  0  0  0  0  0  0  0  0
  -90.5829   23.9098    3.8439 C   0  0  0  0  0  0  0  0  0  0  0  0
  -89.8552   25.0527    3.6062 C   0  0  0  0  0  0  0  0  0  0  0  0
  -89.8544   25.5483    2.3139 C   0  0  0  0  0  0  0  0  0  0  0  0
  -89.2405   26.6289    1.8133 N   0  0  0  0  0  0  0  0  0  0  0  0
  -89.5264   26.7195    0.5125 C   0  0  0  0  0  0  0  0  0  0  0  0
  -89.1125   27.6334   -0.4171 C   0  0  0  0  0  0  0  0  0  0  0  0
  -92.1486   24.5081   -4.0354 H   0  0  0  0  0  0  0  0  0  0  0  0
  -83.9570   27.0173    2.2668 C   0  0  0  0  0  0  0  0  0  0  0  0
  -84.8966   26.8638    1.2336 N   0  0  0  0  0  0  0  0  0  0  0  0
  -84.4252   26.9080    0.3055 H   0  0  0  0  0  0  0  0  0  0  0  0
  -86.0558   29.3713    2.5690 O   0  0  0  0  0  0  0  0  0  0  0  0
  -85.0806   30.2926    2.7471 C   0  0  0  0  0  0  0  0  0  0  0  0
 33 34  1  0  0  0
 34  1  1  0  0  0
  1  2  1  0  0  0
  2  3  1  0  0  0
  3  4  1  0  0  0
  4  5  1  0  0  0
  5  6  1  0  0  0
  5  7  1  0  0  0
  7 36  1  0  0  0
 36 37  1  0  0  0
  5  8  1  0  0  0
  8  9  1  0  0  0
  9 10  2  0  0  0
 10 11  1  0  0  0
 11 12  2  0  0  0
 12 13  1  0  0  0
 13 14  2  0  0  0
 14 15  1  0  0  0
 15 16  2  0  0  0
 16 17  1  0  0  0
 17 18  1  0  0  0
 18 19  1  0  0  0
 19 20  2  0  0  0
 19 21  1  0  0  0
 21 22  2  0  0  0
 22 23  1  0  0  0
 23 24  2  0  0  0
 24 25  1  0  0  0
 25 26  2  0  0  0
 26 27  1  0  0  0
 27 28  2  0  0  0
 28 29  1  0  0  0
 29 30  1  0  0  0
 30 31  2  0  0  0
  7  1  1  0  0  0
 31  8  1  0  0  0
 29  3  1  0  0  0
 14  9  1  0  0  0
 31 15  1  0  0  0
 21 16  1  0  0  0
 30 22  1  0  0  0
 28 23  1  0  0  0
 34 35  1  0  0  0
 18 32  1  0  0  0
M  END
> <minimizedAffinity>
-1.85626

> <CNNscore>
0.1663236320

> <CNNaffinity>
5.7601222992

> <CNN_VS>
0.9580444694

> <CNNaffinity_variance>
0.5064319372

$$$$
[H]c1c([H])c([H])c2c(c1[H])c1c3c(c4c5c([H])c([H])c([H])c([H])c5n5c4c1n2[C@@]1(C([H])([H])[H])O[C@]5([H])C([H])([H])[C@]([H])(N([H])C([H])([H])[H])[C@]1([H])OC([H])([H])[H])C(=O)N([H])C3([H])[H]


 37 44  0  0  0  0  0  0  0  0999 V2000
  -88.2140   30.2980   -2.6365 C   0  0  0  0  0  0  0  0  0  0  0  0
  -87.5420   31.6288   -2.3610 C   0  0  0  0  0  0  0  0  0  0  0  0
  -87.6760   32.0423   -0.9226 C   0  0  0  0  0  0  0  0  0  0  0  0
  -88.7855   31.7004   -0.2726 O   0  0  0  0  0  0  0  0  0  0  0  0
  -89.3647   30.4442   -0.4792 C   0  0  0  0  0  0  0  0  0  0  0  0
  -90.7293   30.6051    0.1659 C   0  0  0  0  0  0  0  0  0  0  0  0
  -89.5511   30.3356   -1.9779 C   0  0  0  0  0  0  0  0  0  0  0  0
  -88.5739   29.3958    0.1225 N   0  0  0  0  0  0  0  0  0  0  0  0
  -89.0562   28.1891    0.5089 C   0  0  0  0  0  0  0  0  0  0  0  0
  -90.2702   27.5816    0.3957 C   0  0  0  0  0  0  0  0  0  0  0  0
  -90.5241   26.2951    0.8770 C   0  0  0  0  0  0  0  0  0  0  0  0
  -89.5355   25.5798    1.4950 C   0  0  0  0  0  0  0  0  0  0  0  0
  -88.3106   26.1798    1.6133 C   0  0  0  0  0  0  0  0  0  0  0  0
  -88.0490   27.4482    1.1424 C   0  0  0  0  0  0  0  0  0  0  0  0
  -86.9256   28.2332    1.1309 C   0  0  0  0  0  0  0  0  0  0  0  0
  -85.6485   28.0221    1.6073 C   0  0  0  0  0  0  0  0  0  0  0  0
  -85.0520   26.8584    2.3082 C   0  0  0  0  0  0  0  0  0  0  0  0
  -83.6977   27.2263    2.5532 N   0  0  0  0  0  0  0  0  0  0  0  0
  -83.4375   28.5452    2.0361 C   0  0  0  0  0  0  0  0  0  0  0  0
  -82.3210   29.0693    2.1355 O   0  0  0  0  0  0  0  0  0  0  0  0
  -84.6748   29.0157    1.4515 C   0  0  0  0  0  0  0  0  0  0  0  0
  -85.0405   30.1977    0.8084 C   0  0  0  0  0  0  0  0  0  0  0  0
  -84.3568   31.3590    0.4548 C   0  0  0  0  0  0  0  0  0  0  0  0
  -83.0803   31.7704    0.6379 C   0  0  0  0  0  0  0  0  0  0  0  0
  -82.6972   33.0312    0.1464 C   0  0  0  0  0  0  0  0  0  0  0  0
  -83.5998   33.8260   -0.5047 C   0  0  0  0  0  0  0  0  0  0  0  0
  -84.9013   33.4266   -0.7010 C   0  0  0  0  0  0  0  0  0  0  0  0
  -85.2653   32.1838   -0.2124 C   0  0  0  0  0  0  0  0  0  0  0  0
  -86.4490   31.5584   -0.2639 N   0  0  0  0  0  0  0  0  0  0  0  0
  -86.3346   30.3748    0.3428 C   0  0  0  0  0  0  0  0  0  0  0  0
  -87.2603   29.3832    0.5176 C   0  0  0  0  0  0  0  0  0  0  0  0
  -83.0102   26.6153    3.0380 H   0  0  0  0  0  0  0  0  0  0  0  0
  -88.0268   30.8208   -5.0160 C   0  0  0  0  0  0  0  0  0  0  0  0
  -88.1209   29.8938   -3.9645 N   0  0  0  0  0  0  0  0  0  0  0  0
  -88.7166   29.0864   -4.2454 H   0  0  0  0  0  0  0  0  0  0  0  0
  -90.1706   31.5153   -2.3572 O   0  0  0  0  0  0  0  0  0  0  0  0
  -91.2306   31.4543   -3.1965 C   0  0  0  0  0  0  0  0  0  0  0  0
 33 34  1  0  0  0
 34  1  1  0  0  0
  1  2  1  0  0  0
  2  3  1  0  0  0
  3  4  1  0  0  0
  4  5  1  0  0  0
  5  6  1  0  0  0
  5  7  1  0  0  0
  7 36  1  0  0  0
 36 37  1  0  0  0
  5  8  1  0  0  0
  8  9  1  0  0  0
  9 10  2  0  0  0
 10 11  1  0  0  0
 11 12  2  0  0  0
 12 13  1  0  0  0
 13 14  2  0  0  0
 14 15  1  0  0  0
 15 16  2  0  0  0
 16 17  1  0  0  0
 17 18  1  0  0  0
 18 19  1  0  0  0
 19 20  2  0  0  0
 19 21  1  0  0  0
 21 22  2  0  0  0
 22 23  1  0  0  0
 23 24  2  0  0  0
 24 25  1  0  0  0
 25 26  2  0  0  0
 26 27  1  0  0  0
 27 28  2  0  0  0
 28 29  1  0  0  0
 29 30  1  0  0  0
 30 31  2  0  0  0
  7  1  1  0  0  0
 31  8  1  0  0  0
 29  3  1  0  0  0
 14  9  1  0  0  0
 31 15  1  0  0  0
 21 16  1  0  0  0
 30 22  1  0  0  0
 28 23  1  0  0  0
 34 35  1  0  0  0
 18 32  1  0  0  0
M  END
> <minimizedAffinity>
-10.45980

> <CNNscore>
0.0980722159

> <CNNaffinity>
6.2653403282

> <CNN_VS>
0.6144558191

> <CNNaffinity_variance>
0.2742883265

$$$$
[H]c1c([H])c([H])c2c(c1[H])c1c3c(c4c5c([H])c([H])c([H])c([H])c5n5c4c1n2[C@@]1(C([H])([H])[H])O[C@]5([H])C([H])([H])[C@]([H])(N([H])C([H])([H])[H])[C@]1([H])OC([H])([H])[H])C(=O)N([H])C3([H])[H]


 37 44  0  0  0  0  0  0  0  0999 V2000
  -89.2971   27.5042    2.2253 C   0  0  0  0  0  0  0  0  0  0  0  0
  -87.8932   26.9579    2.3964 C   0  0  0  0  0  0  0  0  0  0  0  0
  -87.1870   26.7926    1.0805 C   0  0  0  0  0  0  0  0  0  0  0  0
  -87.9136   26.4619    0.0160 O   0  0  0  0  0  0  0  0  0  0  0  0
  -89.1817   27.0208   -0.1731 C   0  0  0  0  0  0  0  0  0  0  0  0
  -89.7624   26.1463   -1.2696 C   0  0  0  0  0  0  0  0  0  0  0  0
  -89.9328   26.7431    1.1119 C   0  0  0  0  0  0  0  0  0  0  0  0
  -89.0915   28.4131   -0.5473 N   0  0  0  0  0  0  0  0  0  0  0  0
  -90.0425   29.0915   -1.2352 C   0  0  0  0  0  0  0  0  0  0  0  0
  -91.2920   28.7733   -1.6748 C   0  0  0  0  0  0  0  0  0  0  0  0
  -92.1043   29.6714   -2.3712 C   0  0  0  0  0  0  0  0  0  0  0  0
  -91.6622   30.9370   -2.6430 C   0  0  0  0  0  0  0  0  0  0  0  0
  -90.4083   31.2685   -2.2047 C   0  0  0  0  0  0  0  0  0  0  0  0
  -89.5985   30.3908   -1.5171 C   0  0  0  0  0  0  0  0  0  0  0  0
  -88.3435   30.4967   -0.9766 C   0  0  0  0  0  0  0  0  0  0  0  0
  -87.4379   31.5367   -0.9455 C   0  0  0  0  0  0  0  0  0  0  0  0
  -87.5156   32.9108   -1.4995 C   0  0  0  0  0  0  0  0  0  0  0  0
  -86.2750   33.5209   -1.1558 N   0  0  0  0  0  0  0  0  0  0  0  0
  -85.4511   32.5964   -0.4203 C   0  0  0  0  0  0  0  0  0  0  0  0
  -84.3258   32.9146   -0.0159 O   0  0  0  0  0  0  0  0  0  0  0  0
  -86.2048   31.3664   -0.3052 C   0  0  0  0  0  0  0  0  0  0  0  0
  -85.9379   30.1326    0.2873 C   0  0  0  0  0  0  0  0  0  0  0  0
  -84.8674   29.6204    1.0173 C   0  0  0  0  0  0  0  0  0  0  0  0
  -83.6746   30.1386    1.3930 C   0  0  0  0  0  0  0  0  0  0  0  0
  -82.7952   29.3396    2.1454 C   0  0  0  0  0  0  0  0  0  0  0  0
  -83.1407   28.0621    2.4904 C   0  0  0  0  0  0  0  0  0  0  0  0
  -84.3477   27.5171    2.1186 C   0  0  0  0  0  0  0  0  0  0  0  0
  -85.2039   28.3139    1.3784 C   0  0  0  0  0  0  0  0  0  0  0  0
  -86.4214   28.0384    0.8919 N   0  0  0  0  0  0  0  0  0  0  0  0
  -86.8726   29.1096    0.2356 C   0  0  0  0  0  0  0  0  0  0  0  0
  -88.0650   29.3116   -0.4034 C   0  0  0  0  0  0  0  0  0  0  0  0
  -86.0195   34.4964   -1.4091 H   0  0  0  0  0  0  0  0  0  0  0  0
  -91.1034   28.4965    3.5380 C   0  0  0  0  0  0  0  0  0  0  0  0
  -89.9842   27.6547    3.4257 N   0  0  0  0  0  0  0  0  0  0  0  0
  -89.4024   27.7082    4.2884 H   0  0  0  0  0  0  0  0  0  0  0  0
  -89.7410   25.3944    1.3650 O   0  0  0  0  0  0  0  0  0  0  0  0
  -90.7831   24.6628    1.8238 C   0  0  0  0  0  0  0  0  0  0  0  0
 33 34  1  0  0  0
 34  1  1  0  0  0
  1  2  1  0  0  0
  2  3  1  0  0  0
  3  4  1  0  0  0
  4  5  1  0  0  0
  5  6  1  0  0  0
  5  7  1  0  0  0
  7 36  1  0  0  0
 36 37  1  0  0  0
  5  8  1  0  0  0
  8  9  1  0  0  0
  9 10  2  0  0  0
 10 11  1  0  0  0
 11 12  2  0  0  0
 12 13  1  0  0  0
 13 14  2  0  0  0
 14 15  1  0  0  0
 15 16  2  0  0  0
 16 17  1  0  0  0
 17 18  1  0  0  0
 18 19  1  0  0  0
 19 20  2  0  0  0
 19 21  1  0  0  0
 21 22  2  0  0  0
 22 23  1  0  0  0
 23 24  2  0  0  0
 24 25  1  0  0  0
 25 26  2  0  0  0
 26 27  1  0  0  0
 27 28  2  0  0  0
 28 29  1  0  0  0
 29 30  1  0  0  0
 30 31  2  0  0  0
  7  1  1  0  0  0
 31  8  1  0  0  0
 29  3  1  0  0  0
 14  9  1  0  0  0
 31 15  1  0  0  0
 21 16  1  0  0  0
 30 22  1  0  0  0
 28 23  1  0  0  0
 34 35  1  0  0  0
 18 32  1  0  0  0
M  END
> <minimizedAffinity>
-12.11344

> <CNNscore>
0.0964879915

> <CNNaffinity>
6.3986811638

> <CNN_VS>
0.6173958778

> <CNNaffinity_variance>
0.2393484861

$$$$
[H]c1c([H])c([H])c2c(c1[H])c1c3c(c4c5c([H])c([H])c([H])c([H])c5n5c4c1n2[C@@]1(C([H])([H])[H])O[C@]5([H])C([H])([H])[C@]([H])(N([H])C([H])([H])[H])[C@]1([H])OC([H])([H])[H])C(=O)N([H])C3([H])[H]


 37 44  0  0  0  0  0  0  0  0999 V2000
  -89.3964   28.6812   -1.3185 C   0  0  0  0  0  0  0  0  0  0  0  0
  -89.4607   28.9778    0.1670 C   0  0  0  0  0  0  0  0  0  0  0  0
  -90.8530   28.8311    0.7126 C   0  0  0  0  0  0  0  0  0  0  0  0
  -91.8739   29.1433   -0.0816 O   0  0  0  0  0  0  0  0  0  0  0  0
  -91.8396   28.8070   -1.4388 C   0  0  0  0  0  0  0  0  0  0  0  0
  -92.9919   29.6174   -2.0040 C   0  0  0  0  0  0  0  0  0  0  0  0
  -90.5419   29.3890   -1.9585 C   0  0  0  0  0  0  0  0  0  0  0  0
  -91.9994   27.3844   -1.6316 N   0  0  0  0  0  0  0  0  0  0  0  0
  -92.4695   26.8061   -2.7641 C   0  0  0  0  0  0  0  0  0  0  0  0
  -92.8199   27.2866   -3.9897 C   0  0  0  0  0  0  0  0  0  0  0  0
  -93.2787   26.4678   -5.0243 C   0  0  0  0  0  0  0  0  0  0  0  0
  -93.3947   25.1176   -4.8387 C   0  0  0  0  0  0  0  0  0  0  0  0
  -93.0440   24.6231   -3.6111 C   0  0  0  0  0  0  0  0  0  0  0  0
  -92.5904   25.4213   -2.5835 C   0  0  0  0  0  0  0  0  0  0  0  0
  -92.1746   25.1601   -1.3040 C   0  0  0  0  0  0  0  0  0  0  0  0
  -92.0769   23.9851   -0.5882 C   0  0  0  0  0  0  0  0  0  0  0  0
  -92.3987   22.5868   -0.9656 C   0  0  0  0  0  0  0  0  0  0  0  0
  -92.0960   21.8108    0.1901 N   0  0  0  0  0  0  0  0  0  0  0  0
  -91.6041   22.6585    1.2456 C   0  0  0  0  0  0  0  0  0  0  0  0
  -91.2754   22.1961    2.3452 O   0  0  0  0  0  0  0  0  0  0  0  0
  -91.6038   24.0103    0.7291 C   0  0  0  0  0  0  0  0  0  0  0  0
  -91.2423   25.2423    1.2730 C   0  0  0  0  0  0  0  0  0  0  0  0
  -90.7174   25.6424    2.5000 C   0  0  0  0  0  0  0  0  0  0  0  0
  -90.3927   24.9691    3.6285 C   0  0  0  0  0  0  0  0  0  0  0  0
  -89.8705   25.6866    4.7196 C   0  0  0  0  0  0  0  0  0  0  0  0
  -89.6946   27.0405    4.6399 C   0  0  0  0  0  0  0  0  0  0  0  0
  -90.0182   27.7432    3.5025 C   0  0  0  0  0  0  0  0  0  0  0  0
  -90.5311   27.0251    2.4362 C   0  0  0  0  0  0  0  0  0  0  0  0
  -90.9243   27.4519    1.2286 N   0  0  0  0  0  0  0  0  0  0  0  0
  -91.3546   26.4034    0.5232 C   0  0  0  0  0  0  0  0  0  0  0  0
  -91.8256   26.3400   -0.7593 C   0  0  0  0  0  0  0  0  0  0  0  0
  -92.2195   20.7799    0.2441 H   0  0  0  0  0  0  0  0  0  0  0  0
  -86.9960   29.0499   -1.0486 C   0  0  0  0  0  0  0  0  0  0  0  0
  -88.1218   28.8231   -1.8580 N   0  0  0  0  0  0  0  0  0  0  0  0
  -88.0512   29.3738   -2.7397 H   0  0  0  0  0  0  0  0  0  0  0  0
  -90.5237   30.7009   -1.5132 O   0  0  0  0  0  0  0  0  0  0  0  0
  -90.0803   31.6673   -2.3506 C   0  0  0  0  0  0  0  0  0  0  0  0
 33 34  1  0  0  0
 34  1  1  0  0  0
  1  2  1  0  0  0
  2  3  1  0  0  0
  3  4  1  0  0  0
  4  5  1  0  0  0
  5  6  1  0  0  0
  5  7  1  0  0  0
  7 36  1  0  0  0
 36 37  1  0  0  0
  5  8  1  0  0  0
  8  9  1  0  0  0
  9 10  2  0  0  0
 10 11  1  0  0  0
 11 12  2  0  0  0
 12 13  1  0  0  0
 13 14  2  0  0  0
 14 15  1  0  0  0
 15 16  2  0  0  0
 16 17  1  0  0  0
 17 18  1  0  0  0
 18 19  1  0  0  0
 19 20  2  0  0  0
 19 21  1  0  0  0
 21 22  2  0  0  0
 22 23  1  0  0  0
 23 24  2  0  0  0
 24 25  1  0  0  0
 25 26  2  0  0  0
 26 27  1  0  0  0
 27 28  2  0  0  0
 28 29  1  0  0  0
 29 30  1  0  0  0
 30 31  2  0  0  0
  7  1  1  0  0  0
 31  8  1  0  0  0
 29  3  1  0  0  0
 14  9  1  0  0  0
 31 15  1  0  0  0
 21 16  1  0  0  0
 30 22  1  0  0  0
 28 23  1  0  0  0
 34 35  1  0  0  0
 18 32  1  0  0  0
M  END
> <minimizedAffinity>
-8.64248

> <CNNscore>
0.0867270082

> <CNNaffinity>
5.3992295265

> <CNN_VS>
0.4682590365

> <CNNaffinity_variance>
0.9841191173

$$$$
[H]c1c([H])c([H])c2c(c1[H])c1c3c(c4c5c([H])c([H])c([H])c([H])c5n5c4c1n2[C@@]1(C([H])([H])[H])O[C@]5([H])C([H])([H])[C@]([H])(N([H])C([H])([H])[H])[C@]1([H])OC([H])([H])[H])C(=O)N([H])C3([H])[H]


 37 44  0  0  0  0  0  0  0  0999 V2000
  -89.2471   26.1655   -0.3759 C   0  0  0  0  0  0  0  0  0  0  0  0
  -90.3508   25.1261   -0.3684 C   0  0  0  0  0  0  0  0  0  0  0  0
  -91.7071   25.7436   -0.1759 C   0  0  0  0  0  0  0  0  0  0  0  0
  -91.7991   26.8295    0.5874 O   0  0  0  0  0  0  0  0  0  0  0  0
  -90.8123   27.8189    0.5274 C   0  0  0  0  0  0  0  0  0  0  0  0
  -91.1227   28.6624    1.7507 C   0  0  0  0  0  0  0  0  0  0  0  0
  -89.5062   27.0905    0.7643 C   0  0  0  0  0  0  0  0  0  0  0  0
  -90.8891   28.5632   -0.7081 N   0  0  0  0  0  0  0  0  0  0  0  0
  -90.4278   29.8265   -0.8792 C   0  0  0  0  0  0  0  0  0  0  0  0
  -89.7363   30.6907   -0.0850 C   0  0  0  0  0  0  0  0  0  0  0  0
  -89.3570   31.9687   -0.5022 C   0  0  0  0  0  0  0  0  0  0  0  0
  -89.6743   32.4094   -1.7577 C   0  0  0  0  0  0  0  0  0  0  0  0
  -90.3681   31.5487   -2.5654 C   0  0  0  0  0  0  0  0  0  0  0  0
  -90.7474   30.2862   -2.1643 C   0  0  0  0  0  0  0  0  0  0  0  0
  -91.4169   29.2643   -2.7854 C   0  0  0  0  0  0  0  0  0  0  0  0
  -91.9618   29.1522   -4.0476 C   0  0  0  0  0  0  0  0  0  0  0  0
  -92.0125   30.1163   -5.1742 C   0  0  0  0  0  0  0  0  0  0  0  0
  -92.7080   29.4359   -6.2148 N   0  0  0  0  0  0  0  0  0  0  0  0
  -93.0779   28.1119   -5.7850 C   0  0  0  0  0  0  0  0  0  0  0  0
  -93.6908   27.3383   -6.5312 O   0  0  0  0  0  0  0  0  0  0  0  0
  -92.5980   27.9646   -4.4277 C   0  0  0  0  0  0  0  0  0  0  0  0
  -92.6543   26.9246   -3.5005 C   0  0  0  0  0  0  0  0  0  0  0  0
  -93.1609   25.6270   -3.5306 C   0  0  0  0  0  0  0  0  0  0  0  0
  -93.8138   24.9130   -4.4773 C   0  0  0  0  0  0  0  0  0  0  0  0
  -94.1989   23.5923   -4.1850 C   0  0  0  0  0  0  0  0  0  0  0  0
  -93.9177   23.0410   -2.9654 C   0  0  0  0  0  0  0  0  0  0  0  0
  -93.2554   23.7496   -1.9901 C   0  0  0  0  0  0  0  0  0  0  0  0
  -92.8821   25.0481   -2.2906 C   0  0  0  0  0  0  0  0  0  0  0  0
  -92.2369   25.9481   -1.5365 N   0  0  0  0  0  0  0  0  0  0  0  0
  -92.0957   27.0737   -2.2402 C   0  0  0  0  0  0  0  0  0  0  0  0
  -91.4863   28.2509   -1.9030 C   0  0  0  0  0  0  0  0  0  0  0  0
  -92.9101   29.8532   -7.1454 H   0  0  0  0  0  0  0  0  0  0  0  0
  -86.8290   26.2646   -0.0389 C   0  0  0  0  0  0  0  0  0  0  0  0
  -87.9758   25.6238   -0.5372 N   0  0  0  0  0  0  0  0  0  0  0  0
  -87.7735   25.1848   -1.4602 H   0  0  0  0  0  0  0  0  0  0  0  0
  -89.7181   26.3142    1.8922 O   0  0  0  0  0  0  0  0  0  0  0  0
  -88.7970   26.3396    2.8835 C   0  0  0  0  0  0  0  0  0  0  0  0
 33 34  1  0  0  0
 34  1  1  0  0  0
  1  2  1  0  0  0
  2  3  1  0  0  0
  3  4  1  0  0  0
  4  5  1  0  0  0
  5  6  1  0  0  0
  5  7  1  0  0  0
  7 36  1  0  0  0
 36 37  1  0  0  0
  5  8  1  0  0  0
  8  9  1  0  0  0
  9 10  2  0  0  0
 10 11  1  0  0  0
 11 12  2  0  0  0
 12 13  1  0  0  0
 13 14  2  0  0  0
 14 15  1  0  0  0
 15 16  2  0  0  0
 16 17  1  0  0  0
 17 18  1  0  0  0
 18 19  1  0  0  0
 19 20  2  0  0  0
 19 21  1  0  0  0
 21 22  2  0  0  0
 22 23  1  0  0  0
 23 24  2  0  0  0
 24 25  1  0  0  0
 25 26  2  0  0  0
 26 27  1  0  0  0
 27 28  2  0  0  0
 28 29  1  0  0  0
 29 30  1  0  0  0
 30 31  2  0  0  0
  7  1  1  0  0  0
 31  8  1  0  0  0
 29  3  1  0  0  0
 14  9  1  0  0  0
 31 15  1  0  0  0
 21 16  1  0  0  0
 30 22  1  0  0  0
 28 23  1  0  0  0
 34 35  1  0  0  0
 18 32  1  0  0  0
M  END
> <minimizedAffinity>
-8.25501

> <CNNscore>
0.0734931901

> <CNNaffinity>
5.3237962723

> <CNN_VS>
0.3912627697

> <CNNaffinity_variance>
0.6234285235

$$$$
[H]c1c([H])c([H])c2c(c1[H])c1c3c(c4c5c([H])c([H])c([H])c([H])c5n5c4c1n2[C@@]1(C([H])([H])[H])O[C@]5([H])C([H])([H])[C@]([H])(N([H])C([H])([H])[H])[C@]1([H])OC([H])([H])[H])C(=O)N([H])C3([H])[H]


 37 44  0  0  0  0  0  0  0  0999 V2000
  -89.5506   25.9864   -1.2197 C   0  0  0  0  0  0  0  0  0  0  0  0
  -90.9636   26.3111   -1.6632 C   0  0  0  0  0  0  0  0  0  0  0  0
  -91.4802   27.5702   -1.0265 C   0  0  0  0  0  0  0  0  0  0  0  0
  -91.0788   27.8587    0.2088 O   0  0  0  0  0  0  0  0  0  0  0  0
  -89.7554   27.6203    0.5935 C   0  0  0  0  0  0  0  0  0  0  0  0
  -89.8247   27.7635    2.1031 C   0  0  0  0  0  0  0  0  0  0  0  0
  -89.5017   26.1654    0.2596 C   0  0  0  0  0  0  0  0  0  0  0  0
  -88.8511   28.5624   -0.0238 N   0  0  0  0  0  0  0  0  0  0  0  0
  -87.6370   28.9066    0.4717 C   0  0  0  0  0  0  0  0  0  0  0  0
  -86.8970   28.4751    1.5309 C   0  0  0  0  0  0  0  0  0  0  0  0
  -85.6359   28.9917    1.8378 C   0  0  0  0  0  0  0  0  0  0  0  0
  -85.0840   29.9754    1.0641 C   0  0  0  0  0  0  0  0  0  0  0  0
  -85.8183   30.4161   -0.0042 C   0  0  0  0  0  0  0  0  0  0  0  0
  -87.0629   29.9138   -0.3162 C   0  0  0  0  0  0  0  0  0  0  0  0
  -87.9587   30.1784   -1.3191 C   0  0  0  0  0  0  0  0  0  0  0  0
  -87.9249   31.0652   -2.3750 C   0  0  0  0  0  0  0  0  0  0  0  0
  -86.8943   32.0506   -2.7849 C   0  0  0  0  0  0  0  0  0  0  0  0
  -87.4228   32.6788   -3.9492 N   0  0  0  0  0  0  0  0  0  0  0  0
  -88.7136   32.1270   -4.2716 C   0  0  0  0  0  0  0  0  0  0  0  0
  -89.3594   32.5234   -5.2498 O   0  0  0  0  0  0  0  0  0  0  0  0
  -88.9994   31.1219   -3.2705 C   0  0  0  0  0  0  0  0  0  0  0  0
  -90.0776   30.2638   -3.0569 C   0  0  0  0  0  0  0  0  0  0  0  0
  -91.2709   30.0211   -3.7340 C   0  0  0  0  0  0  0  0  0  0  0  0
  -91.8291   30.5611   -4.8427 C   0  0  0  0  0  0  0  0  0  0  0  0
  -93.0774   30.0798   -5.2763 C   0  0  0  0  0  0  0  0  0  0  0  0
  -93.7144   29.0840   -4.5887 C   0  0  0  0  0  0  0  0  0  0  0  0
  -93.1643   28.5222   -3.4600 C   0  0  0  0  0  0  0  0  0  0  0  0
  -91.9356   29.0049   -3.0441 C   0  0  0  0  0  0  0  0  0  0  0  0
  -91.1862   28.6431   -1.9940 N   0  0  0  0  0  0  0  0  0  0  0  0
  -90.0768   29.3855   -1.9838 C   0  0  0  0  0  0  0  0  0  0  0  0
  -89.0110   29.3620   -1.1269 C   0  0  0  0  0  0  0  0  0  0  0  0
  -86.9311   33.4276   -4.4770 H   0  0  0  0  0  0  0  0  0  0  0  0
  -89.8812   23.7319   -2.1019 C   0  0  0  0  0  0  0  0  0  0  0  0
  -89.0480   24.8165   -1.7804 N   0  0  0  0  0  0  0  0  0  0  0  0
  -88.1388   24.4756   -1.4025 H   0  0  0  0  0  0  0  0  0  0  0  0
  -90.5730   25.4726    0.7999 O   0  0  0  0  0  0  0  0  0  0  0  0
  -90.3304   24.3411    1.5017 C   0  0  0  0  0  0  0  0  0  0  0  0
 33 34  1  0  0  0
 34  1  1  0  0  0
  1  2  1  0  0  0
  2  3  1  0  0  0
  3  4  1  0  0  0
  4  5  1  0  0  0
  5  6  1  0  0  0
  5  7  1  0  0  0
  7 36  1  0  0  0
 36 37  1  0  0  0
  5  8  1  0  0  0
  8  9  1  0  0  0
  9 10  2  0  0  0
 10 11  1  0  0  0
 11 12  2  0  0  0
 12 13  1  0  0  0
 13 14  2  0  0  0
 14 15  1  0  0  0
 15 16  2  0  0  0
 16 17  1  0  0  0
 17 18  1  0  0  0
 18 19  1  0  0  0
 19 20  2  0  0  0
 19 21  1  0  0  0
 21 22  2  0  0  0
 22 23  1  0  0  0
 23 24  2  0  0  0
 24 25  1  0  0  0
 25 26  2  0  0  0
 26 27  1  0  0  0
 27 28  2  0  0  0
 28 29  1  0  0  0
 29 30  1  0  0  0
 30 31  2  0  0  0
  7  1  1  0  0  0
 31  8  1  0  0  0
 29  3  1  0  0  0
 14  9  1  0  0  0
 31 15  1  0  0  0
 21 16  1  0  0  0
 30 22  1  0  0  0
 28 23  1  0  0  0
 34 35  1  0  0  0
 18 32  1  0  0  0
M  END
> <minimizedAffinity>
-9.47515

> <CNNscore>
0.0721064880

> <CNNaffinity>
5.6385588646

> <CNN_VS>
0.4065766633

> <CNNaffinity_variance>
0.6174361110

$$$$
[H]c1nc2c([H])c(OC([H])([H])[H])c([H])c([H])c2c(Oc2c([H])c([H])c(N([H])C(=O)c3nnn(C([H])([H])c4c([H])c([H])c(F)c(F)c4[H])c3C([H])([H])[H])c([H])c2F)c1[H]


 39 43  0  0  0  0  0  0  0  0999 V2000
  -88.8798   30.8759   -2.5441 C   0  0  0  0  0  0  0  0  0  0  0  0
  -88.2571   30.8538   -3.7739 C   0  0  0  0  0  0  0  0  0  0  0  0
  -87.7607   31.9751   -4.3794 C   0  0  0  0  0  0  0  0  0  0  0  0
  -87.8713   33.2305   -3.7486 C   0  0  0  0  0  0  0  0  0  0  0  0
  -88.4892   33.2642   -2.5265 C   0  0  0  0  0  0  0  0  0  0  0  0
  -88.9841   32.1009   -1.9379 C   0  0  0  0  0  0  0  0  0  0  0  0
  -89.6023   32.2401   -0.7234 F   0  0  0  0  0  0  0  0  0  0  0  0
  -87.3550   34.3586   -4.4369 N   0  0  0  0  0  0  0  0  0  0  0  0
  -88.0762   35.2278   -5.2588 C   0  0  0  0  0  0  0  0  0  0  0  0
  -89.2998   35.0734   -5.4564 O   0  0  0  0  0  0  0  0  0  0  0  0
  -86.3065   34.5430   -4.3065 H   0  0  0  0  0  0  0  0  0  0  0  0
  -87.3870   36.3570   -5.9134 C   0  0  0  0  0  0  0  0  0  0  0  0
  -87.0131   36.3583   -7.1956 N   0  0  0  0  0  0  0  0  0  0  0  0
  -86.4272   37.5444   -7.4061 N   0  0  0  0  0  0  0  0  0  0  0  0
  -86.4315   38.2676   -6.2919 N   0  0  0  0  0  0  0  0  0  0  0  0
  -87.0271   37.5429   -5.3480 C   0  0  0  0  0  0  0  0  0  0  0  0
  -87.2677   37.9418   -3.9415 C   0  0  0  0  0  0  0  0  0  0  0  0
  -85.8738   39.5785   -6.1878 C   0  0  0  0  0  0  0  0  0  0  0  0
  -84.3992   39.4992   -6.2971 C   0  0  0  0  0  0  0  0  0  0  0  0
  -83.7551   40.0983   -7.3376 C   0  0  0  0  0  0  0  0  0  0  0  0
  -82.3630   40.0209   -7.4271 C   0  0  0  0  0  0  0  0  0  0  0  0
  -81.6611   39.3384   -6.4602 C   0  0  0  0  0  0  0  0  0  0  0  0
  -80.3186   39.2262   -6.4874 F   0  0  0  0  0  0  0  0  0  0  0  0
  -82.3395   38.7420   -5.4192 C   0  0  0  0  0  0  0  0  0  0  0  0
  -81.6470   38.0641   -4.4583 F   0  0  0  0  0  0  0  0  0  0  0  0
  -83.7156   38.8102   -5.3173 C   0  0  0  0  0  0  0  0  0  0  0  0
  -89.3621   29.7501   -1.9710 O   0  0  0  0  0  0  0  0  0  0  0  0
  -90.5438   28.0241    2.5750 C   0  0  0  0  0  0  0  0  0  0  0  0
  -91.1087   28.8665    1.6420 C   0  0  0  0  0  0  0  0  0  0  0  0
  -90.5085   29.1552    0.4266 C   0  0  0  0  0  0  0  0  0  0  0  0
  -89.2880   28.5761    0.1294 C   0  0  0  0  0  0  0  0  0  0  0  0
  -88.7119   28.8883   -1.1031 C   0  0  0  0  0  0  0  0  0  0  0  0
  -87.5052   28.2999   -1.3687 C   0  0  0  0  0  0  0  0  0  0  0  0
  -86.9248   27.4539   -0.4458 C   0  0  0  0  0  0  0  0  0  0  0  0
  -87.5218   27.1809    0.7376 N   0  0  0  0  0  0  0  0  0  0  0  0
  -88.7180   27.7369    1.0508 C   0  0  0  0  0  0  0  0  0  0  0  0
  -89.3303   27.4526    2.2715 C   0  0  0  0  0  0  0  0  0  0  0  0
  -90.9156   26.5540    4.5046 C   0  0  0  0  0  0  0  0  0  0  0  0
  -91.1891   27.7582    3.7987 O   0  0  0  0  0  0  0  0  0  0  0  0
 38 39  1  0  0  0
 39 28  1  0  0  0
 28 29  2  0  0  0
 29 30  1  0  0  0
 30 31  2  0  0  0
 31 32  1  0  0  0
 32 27  1  0  0  0
 27  1  1  0  0  0
  1  2  2  0  0  0
  2  3  1  0  0  0
  3  4  2  0  0  0
  4  8  1  0  0  0
  8  9  1  0  0  0
  9 10  2  0  0  0
  9 12  1  0  0  0
 12 13  1  0  0  0
 13 14  2  0  0  0
 14 15  1  0  0  0
 15 18  1  0  0  0
 18 19  1  0  0  0
 19 20  2  0  0  0
 20 21  1  0  0  0
 21 22  2  0  0  0
 22 23  1  0  0  0
 22 24  1  0  0  0
 24 25  1  0  0  0
 24 26  2  0  0  0
 15 16  1  0  0  0
 16 17  1  0  0  0
  4  5  1  0  0  0
  5  6  2  0  0  0
  6  7  1  0  0  0
 32 33  2  0  0  0
 33 34  1  0  0  0
 34 35  2  0  0  0
 35 36  1  0  0  0
 36 37  2  0  0  0
 37 28  1  0  0  0
 36 31  1  0  0  0
  6  1  1  0  0  0
 16 12  2  0  0  0
 26 19  1  0  0  0
  8 11  1  0  0  0
M  END
> <minimizedAffinity>
-9.40632

> <CNNscore>
0.2665346861

> <CNNaffinity>
6.3706297874

> <CNN_VS>
1.6979937553

> <CNNaffinity_variance>
0.4800498486

$$$$
[H]c1nc2c([H])c(OC([H])([H])[H])c([H])c([H])c2c(Oc2c([H])c([H])c(N([H])C(=O)c3nnn(C([H])([H])c4c([H])c([H])c(F)c(F)c4[H])c3C([H])([H])[H])c([H])c2F)c1[H]


 39 43  0  0  0  0  0  0  0  0999 V2000
  -88.8430   31.1799   -2.2836 C   0  0  0  0  0  0  0  0  0  0  0  0
  -88.1628   31.0834   -3.4789 C   0  0  0  0  0  0  0  0  0  0  0  0
  -87.6610   32.1693   -4.1419 C   0  0  0  0  0  0  0  0  0  0  0  0
  -87.8264   33.4642   -3.6106 C   0  0  0  0  0  0  0  0  0  0  0  0
  -88.5016   33.5717   -2.4236 C   0  0  0  0  0  0  0  0  0  0  0  0
  -89.0003   32.4428   -1.7744 C   0  0  0  0  0  0  0  0  0  0  0  0
  -89.6777   32.6551   -0.6028 F   0  0  0  0  0  0  0  0  0  0  0  0
  -87.3009   34.5512   -4.3556 N   0  0  0  0  0  0  0  0  0  0  0  0
  -88.0151   35.3831   -5.2212 C   0  0  0  0  0  0  0  0  0  0  0  0
  -89.2400   35.2288   -5.4109 O   0  0  0  0  0  0  0  0  0  0  0  0
  -86.2509   34.7335   -4.2346 H   0  0  0  0  0  0  0  0  0  0  0  0
  -87.3168   36.4716   -5.9326 C   0  0  0  0  0  0  0  0  0  0  0  0
  -86.9697   36.4159   -7.2211 N   0  0  0  0  0  0  0  0  0  0  0  0
  -86.3642   37.5805   -7.4889 N   0  0  0  0  0  0  0  0  0  0  0  0
  -86.3307   38.3457   -6.4037 N   0  0  0  0  0  0  0  0  0  0  0  0
  -86.9212   37.6704   -5.4208 C   0  0  0  0  0  0  0  0  0  0  0  0
  -87.1243   38.1278   -4.0262 C   0  0  0  0  0  0  0  0  0  0  0  0
  -85.7444   39.6475   -6.3615 C   0  0  0  0  0  0  0  0  0  0  0  0
  -84.2699   39.5288   -6.4282 C   0  0  0  0  0  0  0  0  0  0  0  0
  -83.5814   40.0983   -7.4569 C   0  0  0  0  0  0  0  0  0  0  0  0
  -82.1899   39.9837   -7.5062 C   0  0  0  0  0  0  0  0  0  0  0  0
  -81.5335   39.2951   -6.5121 C   0  0  0  0  0  0  0  0  0  0  0  0
  -80.1942   39.1478   -6.5003 F   0  0  0  0  0  0  0  0  0  0  0  0
  -82.2561   38.7291   -5.4840 C   0  0  0  0  0  0  0  0  0  0  0  0
  -81.6087   38.0452   -4.4963 F   0  0  0  0  0  0  0  0  0  0  0  0
  -83.6322   38.8341   -5.4217 C   0  0  0  0  0  0  0  0  0  0  0  0
  -89.3291   30.0876   -1.6520 O   0  0  0  0  0  0  0  0  0  0  0  0
  -85.3016   29.6082    1.2792 C   0  0  0  0  0  0  0  0  0  0  0  0
  -86.0648   30.6422    0.7815 C   0  0  0  0  0  0  0  0  0  0  0  0
  -87.1640   30.4405   -0.0381 C   0  0  0  0  0  0  0  0  0  0  0  0
  -87.5174   29.1466   -0.3762 C   0  0  0  0  0  0  0  0  0  0  0  0
  -88.6296   28.9796   -1.2029 C   0  0  0  0  0  0  0  0  0  0  0  0
  -88.9547   27.6884   -1.5194 C   0  0  0  0  0  0  0  0  0  0  0  0
  -88.2014   26.6407   -1.0301 C   0  0  0  0  0  0  0  0  0  0  0  0
  -87.1300   26.8520   -0.2309 N   0  0  0  0  0  0  0  0  0  0  0  0
  -86.7647   28.1114    0.1137 C   0  0  0  0  0  0  0  0  0  0  0  0
  -85.6598   28.3250    0.9381 C   0  0  0  0  0  0  0  0  0  0  0  0
  -82.9491   30.2557    1.5424 C   0  0  0  0  0  0  0  0  0  0  0  0
  -84.1917   29.8588    2.1096 O   0  0  0  0  0  0  0  0  0  0  0  0
 38 39  1  0  0  0
 39 28  1  0  0  0
 28 29  2  0  0  0
 29 30  1  0  0  0
 30 31  2  0  0  0
 31 32  1  0  0  0
 32 27  1  0  0  0
 27  1  1  0  0  0
  1  2  2  0  0  0
  2  3  1  0  0  0
  3  4  2  0  0  0
  4  8  1  0  0  0
  8  9  1  0  0  0
  9 10  2  0  0  0
  9 12  1  0  0  0
 12 13  1  0  0  0
 13 14  2  0  0  0
 14 15  1  0  0  0
 15 18  1  0  0  0
 18 19  1  0  0  0
 19 20  2  0  0  0
 20 21  1  0  0  0
 21 22  2  0  0  0
 22 23  1  0  0  0
 22 24  1  0  0  0
 24 25  1  0  0  0
 24 26  2  0  0  0
 15 16  1  0  0  0
 16 17  1  0  0  0
  4  5  1  0  0  0
  5  6  2  0  0  0
  6  7  1  0  0  0
 32 33  2  0  0  0
 33 34  1  0  0  0
 34 35  2  0  0  0
 35 36  1  0  0  0
 36 37  2  0  0  0
 37 28  1  0  0  0
 36 31  1  0  0  0
  6  1  1  0  0  0
 16 12  2  0  0  0
 26 19  1  0  0  0
  8 11  1  0  0  0
M  END
> <minimizedAffinity>
-9.52481

> <CNNscore>
0.2241228223

> <CNNaffinity>
6.7946152687

> <CNN_VS>
1.5228283405

> <CNNaffinity_variance>
0.3878923655

$$$$
[H]c1nc2c([H])c(OC([H])([H])[H])c([H])c([H])c2c(Oc2c([H])c([H])c(N([H])C(=O)c3nnn(C([H])([H])c4c([H])c([H])c(F)c(F)c4[H])c3C([H])([H])[H])c([H])c2F)c1[H]


 39 43  0  0  0  0  0  0  0  0999 V2000
  -86.4029   28.7036    1.3410 C   0  0  0  0  0  0  0  0  0  0  0  0
  -87.5398   28.9315    0.5951 C   0  0  0  0  0  0  0  0  0  0  0  0
  -88.2824   27.9260    0.0402 C   0  0  0  0  0  0  0  0  0  0  0  0
  -87.9004   26.5810    0.2166 C   0  0  0  0  0  0  0  0  0  0  0  0
  -86.7716   26.3431    0.9554 C   0  0  0  0  0  0  0  0  0  0  0  0
  -86.0379   27.3928    1.5069 C   0  0  0  0  0  0  0  0  0  0  0  0
  -84.9140   27.0543    2.2132 F   0  0  0  0  0  0  0  0  0  0  0  0
  -88.7003   25.5852   -0.4009 N   0  0  0  0  0  0  0  0  0  0  0  0
  -89.9244   25.1004    0.0658 C   0  0  0  0  0  0  0  0  0  0  0  0
  -90.4398   25.5352    1.1172 O   0  0  0  0  0  0  0  0  0  0  0  0
  -88.3088   25.1718   -1.3099 H   0  0  0  0  0  0  0  0  0  0  0  0
  -90.6332   24.0510   -0.6924 C   0  0  0  0  0  0  0  0  0  0  0  0
  -90.7626   22.7892   -0.2739 N   0  0  0  0  0  0  0  0  0  0  0  0
  -91.4587   22.1557   -1.2271 N   0  0  0  0  0  0  0  0  0  0  0  0
  -91.7584   22.9915   -2.2150 N   0  0  0  0  0  0  0  0  0  0  0  0
  -91.2514   24.1807   -1.8994 C   0  0  0  0  0  0  0  0  0  0  0  0
  -91.3412   25.4251   -2.6987 C   0  0  0  0  0  0  0  0  0  0  0  0
  -92.4896   22.6180   -3.3838 C   0  0  0  0  0  0  0  0  0  0  0  0
  -93.8672   23.1542   -3.2984 C   0  0  0  0  0  0  0  0  0  0  0  0
  -94.6801   22.7960   -2.2652 C   0  0  0  0  0  0  0  0  0  0  0  0
  -95.9762   23.3124   -2.1928 C   0  0  0  0  0  0  0  0  0  0  0  0
  -96.4138   24.1776   -3.1692 C   0  0  0  0  0  0  0  0  0  0  0  0
  -97.6512   24.7109   -3.1584 F   0  0  0  0  0  0  0  0  0  0  0  0
  -95.5695   24.5219   -4.2027 C   0  0  0  0  0  0  0  0  0  0  0  0
  -95.9999   25.3796   -5.1730 F   0  0  0  0  0  0  0  0  0  0  0  0
  -94.2854   24.0195   -4.2876 C   0  0  0  0  0  0  0  0  0  0  0  0
  -85.6883   29.7191    1.8761 O   0  0  0  0  0  0  0  0  0  0  0  0
  -86.0012   33.4373   -1.4586 C   0  0  0  0  0  0  0  0  0  0  0  0
  -86.8780   32.6083   -0.7927 C   0  0  0  0  0  0  0  0  0  0  0  0
  -86.4626   31.6381    0.1057 C   0  0  0  0  0  0  0  0  0  0  0  0
  -85.1094   31.4889    0.3502 C   0  0  0  0  0  0  0  0  0  0  0  0
  -84.7261   30.5026    1.2606 C   0  0  0  0  0  0  0  0  0  0  0  0
  -83.3811   30.3794    1.4821 C   0  0  0  0  0  0  0  0  0  0  0  0
  -82.4888   31.2009    0.8238 C   0  0  0  0  0  0  0  0  0  0  0  0
  -82.9081   32.1440   -0.0513 N   0  0  0  0  0  0  0  0  0  0  0  0
  -84.2294   32.3085   -0.3071 C   0  0  0  0  0  0  0  0  0  0  0  0
  -84.6576   33.2822   -1.2096 C   0  0  0  0  0  0  0  0  0  0  0  0
  -87.3048   34.0344   -3.4502 C   0  0  0  0  0  0  0  0  0  0  0  0
  -86.4671   34.4107   -2.3640 O   0  0  0  0  0  0  0  0  0  0  0  0
 38 39  1  0  0  0
 39 28  1  0  0  0
 28 29  2  0  0  0
 29 30  1  0  0  0
 30 31  2  0  0  0
 31 32  1  0  0  0
 32 27  1  0  0  0
 27  1  1  0  0  0
  1  2  2  0  0  0
  2  3  1  0  0  0
  3  4  2  0  0  0
  4  8  1  0  0  0
  8  9  1  0  0  0
  9 10  2  0  0  0
  9 12  1  0  0  0
 12 13  1  0  0  0
 13 14  2  0  0  0
 14 15  1  0  0  0
 15 18  1  0  0  0
 18 19  1  0  0  0
 19 20  2  0  0  0
 20 21  1  0  0  0
 21 22  2  0  0  0
 22 23  1  0  0  0
 22 24  1  0  0  0
 24 25  1  0  0  0
 24 26  2  0  0  0
 15 16  1  0  0  0
 16 17  1  0  0  0
  4  5  1  0  0  0
  5  6  2  0  0  0
  6  7  1  0  0  0
 32 33  2  0  0  0
 33 34  1  0  0  0
 34 35  2  0  0  0
 35 36  1  0  0  0
 36 37  2  0  0  0
 37 28  1  0  0  0
 36 31  1  0  0  0
  6  1  1  0  0  0
 16 12  2  0  0  0
 26 19  1  0  0  0
  8 11  1  0  0  0
M  END
> <minimizedAffinity>
-8.78411

> <CNNscore>
0.1719685942

> <CNNaffinity>
6.7555108070

> <CNN_VS>
1.1617356539

> <CNNaffinity_variance>
0.1554270685

$$$$
[H]c1nc2c([H])c(OC([H])([H])[H])c([H])c([H])c2c(Oc2c([H])c([H])c(N([H])C(=O)c3nnn(C([H])([H])c4c([H])c([H])c(F)c(F)c4[H])c3C([H])([H])[H])c([H])c2F)c1[H]


 39 43  0  0  0  0  0  0  0  0999 V2000
  -87.6083   32.4157   -0.9692 C   0  0  0  0  0  0  0  0  0  0  0  0
  -88.7589   31.8639   -0.4474 C   0  0  0  0  0  0  0  0  0  0  0  0
  -89.7544   31.3396   -1.2251 C   0  0  0  0  0  0  0  0  0  0  0  0
  -89.6356   31.3451   -2.6294 C   0  0  0  0  0  0  0  0  0  0  0  0
  -88.4965   31.8920   -3.1586 C   0  0  0  0  0  0  0  0  0  0  0  0
  -87.5012   32.4180   -2.3357 C   0  0  0  0  0  0  0  0  0  0  0  0
  -86.4087   32.9597   -2.9599 F   0  0  0  0  0  0  0  0  0  0  0  0
  -90.7109   30.8052   -3.3811 N   0  0  0  0  0  0  0  0  0  0  0  0
  -90.9736   29.4498   -3.5933 C   0  0  0  0  0  0  0  0  0  0  0  0
  -90.2451   28.5603   -3.1053 O   0  0  0  0  0  0  0  0  0  0  0  0
  -91.3726   31.5220   -3.8270 H   0  0  0  0  0  0  0  0  0  0  0  0
  -92.1350   29.0486   -4.4110 C   0  0  0  0  0  0  0  0  0  0  0  0
  -92.1756   29.1423   -5.7428 N   0  0  0  0  0  0  0  0  0  0  0  0
  -93.3816   28.6864   -6.1064 N   0  0  0  0  0  0  0  0  0  0  0  0
  -94.0790   28.3172   -5.0378 N   0  0  0  0  0  0  0  0  0  0  0  0
  -93.3170   28.5357   -3.9689 C   0  0  0  0  0  0  0  0  0  0  0  0
  -93.6722   28.2687   -2.5555 C   0  0  0  0  0  0  0  0  0  0  0  0
  -95.4071   27.7944   -5.0918 C   0  0  0  0  0  0  0  0  0  0  0  0
  -95.3539   26.3219   -5.2393 C   0  0  0  0  0  0  0  0  0  0  0  0
  -95.6056   25.5157   -4.1701 C   0  0  0  0  0  0  0  0  0  0  0  0
  -95.5572   24.1278   -4.3228 C   0  0  0  0  0  0  0  0  0  0  0  0
  -95.2551   23.5943   -5.5547 C   0  0  0  0  0  0  0  0  0  0  0  0
  -95.1924   22.2655   -5.7694 F   0  0  0  0  0  0  0  0  0  0  0  0
  -95.0048   24.4343   -6.6182 C   0  0  0  0  0  0  0  0  0  0  0  0
  -94.7046   23.9090   -7.8415 F   0  0  0  0  0  0  0  0  0  0  0  0
  -95.0489   25.8085   -6.4825 C   0  0  0  0  0  0  0  0  0  0  0  0
  -86.6417   32.9279   -0.1744 O   0  0  0  0  0  0  0  0  0  0  0  0
  -84.2990   29.1955    2.1971 C   0  0  0  0  0  0  0  0  0  0  0  0
  -85.5953   29.6439    2.0629 C   0  0  0  0  0  0  0  0  0  0  0  0
  -85.9341   30.7531    1.3043 C   0  0  0  0  0  0  0  0  0  0  0  0
  -84.9322   31.4465    0.6495 C   0  0  0  0  0  0  0  0  0  0  0  0
  -85.3085   32.5585   -0.1058 C   0  0  0  0  0  0  0  0  0  0  0  0
  -84.2956   33.2234   -0.7421 C   0  0  0  0  0  0  0  0  0  0  0  0
  -82.9917   32.7886   -0.6186 C   0  0  0  0  0  0  0  0  0  0  0  0
  -82.6748   31.7039    0.1259 N   0  0  0  0  0  0  0  0  0  0  0  0
  -83.6398   31.0087    0.7767 C   0  0  0  0  0  0  0  0  0  0  0  0
  -83.3091   29.8908    1.5428 C   0  0  0  0  0  0  0  0  0  0  0  0
  -82.7728   27.3675    2.7902 C   0  0  0  0  0  0  0  0  0  0  0  0
  -83.9994   28.0626    2.9788 O   0  0  0  0  0  0  0  0  0  0  0  0
 38 39  1  0  0  0
 39 28  1  0  0  0
 28 29  2  0  0  0
 29 30  1  0  0  0
 30 31  2  0  0  0
 31 32  1  0  0  0
 32 27  1  0  0  0
 27  1  1  0  0  0
  1  2  2  0  0  0
  2  3  1  0  0  0
  3  4  2  0  0  0
  4  8  1  0  0  0
  8  9  1  0  0  0
  9 10  2  0  0  0
  9 12  1  0  0  0
 12 13  1  0  0  0
 13 14  2  0  0  0
 14 15  1  0  0  0
 15 18  1  0  0  0
 18 19  1  0  0  0
 19 20  2  0  0  0
 20 21  1  0  0  0
 21 22  2  0  0  0
 22 23  1  0  0  0
 22 24  1  0  0  0
 24 25  1  0  0  0
 24 26  2  0  0  0
 15 16  1  0  0  0
 16 17  1  0  0  0
  4  5  1  0  0  0
  5  6  2  0  0  0
  6  7  1  0  0  0
 32 33  2  0  0  0
 33 34  1  0  0  0
 34 35  2  0  0  0
 35 36  1  0  0  0
 36 37  2  0  0  0
 37 28  1  0  0  0
 36 31  1  0  0  0
  6  1  1  0  0  0
 16 12  2  0  0  0
 26 19  1  0  0  0
  8 11  1  0  0  0
M  END
> <minimizedAffinity>
-8.76512

> <CNNscore>
0.1110936403

> <CNNaffinity>
6.4714646339

> <CNN_VS>
0.7189385891

> <CNNaffinity_variance>
0.1066260561

$$$$
[H]c1nc2c([H])c(OC([H])([H])[H])c([H])c([H])c2c(Oc2c([H])c([H])c(N([H])C(=O)c3nnn(C([H])([H])c4c([H])c([H])c(F)c(F)c4[H])c3C([H])([H])[H])c([H])c2F)c1[H]


 39 43  0  0  0  0  0  0  0  0999 V2000
  -87.9491   31.9127   -1.1134 C   0  0  0  0  0  0  0  0  0  0  0  0
  -89.0182   31.3256   -0.4709 C   0  0  0  0  0  0  0  0  0  0  0  0
  -89.9382   30.5443   -1.1142 C   0  0  0  0  0  0  0  0  0  0  0  0
  -89.8221   30.3044   -2.4981 C   0  0  0  0  0  0  0  0  0  0  0  0
  -88.7637   30.8837   -3.1467 C   0  0  0  0  0  0  0  0  0  0  0  0
  -87.8441   31.6751   -2.4593 C   0  0  0  0  0  0  0  0  0  0  0  0
  -86.8313   32.2259   -3.1992 F   0  0  0  0  0  0  0  0  0  0  0  0
  -90.8192   29.5025   -3.1110 N   0  0  0  0  0  0  0  0  0  0  0  0
  -91.6870   29.8978   -4.1317 C   0  0  0  0  0  0  0  0  0  0  0  0
  -91.6448   31.0493   -4.6138 O   0  0  0  0  0  0  0  0  0  0  0  0
  -90.9044   28.5006   -2.7379 H   0  0  0  0  0  0  0  0  0  0  0  0
  -92.6798   28.9418   -4.6597 C   0  0  0  0  0  0  0  0  0  0  0  0
  -92.3738   27.9162   -5.4588 N   0  0  0  0  0  0  0  0  0  0  0  0
  -93.5315   27.2936   -5.7168 N   0  0  0  0  0  0  0  0  0  0  0  0
  -94.5352   27.9072   -5.1000 N   0  0  0  0  0  0  0  0  0  0  0  0
  -94.0232   28.9394   -4.4342 C   0  0  0  0  0  0  0  0  0  0  0  0
  -94.7635   29.9095   -3.5938 C   0  0  0  0  0  0  0  0  0  0  0  0
  -95.8987   27.4899   -5.1827 C   0  0  0  0  0  0  0  0  0  0  0  0
  -96.3317   26.9506   -3.8734 C   0  0  0  0  0  0  0  0  0  0  0  0
  -97.2563   27.6184   -3.1280 C   0  0  0  0  0  0  0  0  0  0  0  0
  -97.6605   27.0970   -1.8965 C   0  0  0  0  0  0  0  0  0  0  0  0
  -97.1170   25.9131   -1.4534 C   0  0  0  0  0  0  0  0  0  0  0  0
  -97.4633   25.3565   -0.2761 F   0  0  0  0  0  0  0  0  0  0  0  0
  -96.1834   25.2597   -2.2286 C   0  0  0  0  0  0  0  0  0  0  0  0
  -95.6419   24.0854   -1.7925 F   0  0  0  0  0  0  0  0  0  0  0  0
  -95.7740   25.7629   -3.4484 C   0  0  0  0  0  0  0  0  0  0  0  0
  -87.0562   32.6818   -0.4503 O   0  0  0  0  0  0  0  0  0  0  0  0
  -84.3465   29.2415    1.9715 C   0  0  0  0  0  0  0  0  0  0  0  0
  -85.6836   29.5185    1.7846 C   0  0  0  0  0  0  0  0  0  0  0  0
  -86.1325   30.5889    1.0274 C   0  0  0  0  0  0  0  0  0  0  0  0
  -85.2035   31.4211    0.4293 C   0  0  0  0  0  0  0  0  0  0  0  0
  -85.6901   32.4892   -0.3262 C   0  0  0  0  0  0  0  0  0  0  0  0
  -84.7472   33.2942   -0.9057 C   0  0  0  0  0  0  0  0  0  0  0  0
  -83.4039   33.0319   -0.7289 C   0  0  0  0  0  0  0  0  0  0  0  0
  -82.9792   31.9832    0.0135 N   0  0  0  0  0  0  0  0  0  0  0  0
  -83.8714   31.1541    0.6093 C   0  0  0  0  0  0  0  0  0  0  0  0
  -83.4296   30.0739    1.3734 C   0  0  0  0  0  0  0  0  0  0  0  0
  -82.5964   27.6663    2.6634 C   0  0  0  0  0  0  0  0  0  0  0  0
  -83.9341   28.1420    2.7495 O   0  0  0  0  0  0  0  0  0  0  0  0
 38 39  1  0  0  0
 39 28  1  0  0  0
 28 29  2  0  0  0
 29 30  1  0  0  0
 30 31  2  0  0  0
 31 32  1  0  0  0
 32 27  1  0  0  0
 27  1  1  0  0  0
  1  2  2  0  0  0
  2  3  1  0  0  0
  3  4  2  0  0  0
  4  8  1  0  0  0
  8  9  1  0  0  0
  9 10  2  0  0  0
  9 12  1  0  0  0
 12 13  1  0  0  0
 13 14  2  0  0  0
 14 15  1  0  0  0
 15 18  1  0  0  0
 18 19  1  0  0  0
 19 20  2  0  0  0
 20 21  1  0  0  0
 21 22  2  0  0  0
 22 23  1  0  0  0
 22 24  1  0  0  0
 24 25  1  0  0  0
 24 26  2  0  0  0
 15 16  1  0  0  0
 16 17  1  0  0  0
  4  5  1  0  0  0
  5  6  2  0  0  0
  6  7  1  0  0  0
 32 33  2  0  0  0
 33 34  1  0  0  0
 34 35  2  0  0  0
 35 36  1  0  0  0
 36 37  2  0  0  0
 37 28  1  0  0  0
 36 31  1  0  0  0
  6  1  1  0  0  0
 16 12  2  0  0  0
 26 19  1  0  0  0
  8 11  1  0  0  0
M  END
> <minimizedAffinity>
-7.85237

> <CNNscore>
0.1061697528

> <CNNaffinity>
6.5900907516

> <CNN_VS>
0.6996682882

> <CNNaffinity_variance>
0.2207660228

$$$$
[H]c1nc2c([H])c(OC([H])([H])[H])c([H])c([H])c2c(Oc2c([H])c([H])c(N([H])C(=O)c3nnn(C([H])([H])c4c([H])c([H])c(F)c(F)c4[H])c3C([H])([H])[H])c([H])c2F)c1[H]


 39 43  0  0  0  0  0  0  0  0999 V2000
  -87.0684   27.4487    2.0176 C   0  0  0  0  0  0  0  0  0  0  0  0
  -86.7251   26.8190    0.8401 C   0  0  0  0  0  0  0  0  0  0  0  0
  -87.6414   26.2255    0.0164 C   0  0  0  0  0  0  0  0  0  0  0  0
  -89.0101   26.2368    0.3523 C   0  0  0  0  0  0  0  0  0  0  0  0
  -89.3623   26.8591    1.5207 C   0  0  0  0  0  0  0  0  0  0  0  0
  -88.4013   27.4544    2.3372 C   0  0  0  0  0  0  0  0  0  0  0  0
  -88.8501   28.0348    3.4940 F   0  0  0  0  0  0  0  0  0  0  0  0
  -89.9084   25.5866   -0.5327 N   0  0  0  0  0  0  0  0  0  0  0  0
  -90.4590   24.3139   -0.3650 C   0  0  0  0  0  0  0  0  0  0  0  0
  -90.1928   23.6149    0.6353 O   0  0  0  0  0  0  0  0  0  0  0  0
  -90.1748   26.1382   -1.4131 H   0  0  0  0  0  0  0  0  0  0  0  0
  -91.3769   23.7730   -1.3866 C   0  0  0  0  0  0  0  0  0  0  0  0
  -90.9899   22.9820   -2.3908 N   0  0  0  0  0  0  0  0  0  0  0  0
  -92.0987   22.7086   -3.0911 N   0  0  0  0  0  0  0  0  0  0  0  0
  -93.1509   23.3084   -2.5457 N   0  0  0  0  0  0  0  0  0  0  0  0
  -92.7204   23.9781   -1.4795 C   0  0  0  0  0  0  0  0  0  0  0  0
  -93.5396   24.7935   -0.5524 C   0  0  0  0  0  0  0  0  0  0  0  0
  -94.4792   23.2183   -3.0630 C   0  0  0  0  0  0  0  0  0  0  0  0
  -94.6363   24.1642   -4.1914 C   0  0  0  0  0  0  0  0  0  0  0  0
  -94.6765   25.5065   -3.9611 C   0  0  0  0  0  0  0  0  0  0  0  0
  -94.8200   26.3893   -5.0344 C   0  0  0  0  0  0  0  0  0  0  0  0
  -94.9191   25.8882   -6.3121 C   0  0  0  0  0  0  0  0  0  0  0  0
  -95.0590   26.6843   -7.3902 F   0  0  0  0  0  0  0  0  0  0  0  0
  -94.8757   24.5257   -6.5149 C   0  0  0  0  0  0  0  0  0  0  0  0
  -94.9738   24.0248   -7.7806 F   0  0  0  0  0  0  0  0  0  0  0  0
  -94.7340   23.6405   -5.4636 C   0  0  0  0  0  0  0  0  0  0  0  0
  -86.1390   28.0258    2.8124 O   0  0  0  0  0  0  0  0  0  0  0  0
  -84.1739   31.9378    0.3880 C   0  0  0  0  0  0  0  0  0  0  0  0
  -85.4322   31.5119    0.7550 C   0  0  0  0  0  0  0  0  0  0  0  0
  -85.6560   30.3337    1.4496 C   0  0  0  0  0  0  0  0  0  0  0  0
  -84.5734   29.5444    1.7935 C   0  0  0  0  0  0  0  0  0  0  0  0
  -84.8347   28.3649    2.4928 C   0  0  0  0  0  0  0  0  0  0  0  0
  -83.7437   27.6058    2.8194 C   0  0  0  0  0  0  0  0  0  0  0  0
  -82.4764   28.0168    2.4597 C   0  0  0  0  0  0  0  0  0  0  0  0
  -82.2722   29.1696    1.7811 N   0  0  0  0  0  0  0  0  0  0  0  0
  -83.3179   29.9592    1.4331 C   0  0  0  0  0  0  0  0  0  0  0  0
  -83.1032   31.1471    0.7339 C   0  0  0  0  0  0  0  0  0  0  0  0
  -84.8480   33.4712   -1.4055 C   0  0  0  0  0  0  0  0  0  0  0  0
  -83.9920   33.1431   -0.3179 O   0  0  0  0  0  0  0  0  0  0  0  0
 38 39  1  0  0  0
 39 28  1  0  0  0
 28 29  2  0  0  0
 29 30  1  0  0  0
 30 31  2  0  0  0
 31 32  1  0  0  0
 32 27  1  0  0  0
 27  1  1  0  0  0
  1  2  2  0  0  0
  2  3  1  0  0  0
  3  4  2  0  0  0
  4  8  1  0  0  0
  8  9  1  0  0  0
  9 10  2  0  0  0
  9 12  1  0  0  0
 12 13  1  0  0  0
 13 14  2  0  0  0
 14 15  1  0  0  0
 15 18  1  0  0  0
 18 19  1  0  0  0
 19 20  2  0  0  0
 20 21  1  0  0  0
 21 22  2  0  0  0
 22 23  1  0  0  0
 22 24  1  0  0  0
 24 25  1  0  0  0
 24 26  2  0  0  0
 15 16  1  0  0  0
 16 17  1  0  0  0
  4  5  1  0  0  0
  5  6  2  0  0  0
  6  7  1  0  0  0
 32 33  2  0  0  0
 33 34  1  0  0  0
 34 35  2  0  0  0
 35 36  1  0  0  0
 36 37  2  0  0  0
 37 28  1  0  0  0
 36 31  1  0  0  0
  6  1  1  0  0  0
 16 12  2  0  0  0
 26 19  1  0  0  0
  8 11  1  0  0  0
M  END
> <minimizedAffinity>
-8.93531

> <CNNscore>
0.0938530862

> <CNNaffinity>
6.4370956421

> <CNN_VS>
0.6041412950

> <CNNaffinity_variance>
0.1787479222

$$$$
[H]c1nc2c([H])c(OC([H])([H])[H])c([H])c([H])c2c(Oc2c([H])c([H])c(N([H])C(=O)c3nnn(C([H])([H])c4c([H])c([H])c(F)c(F)c4[H])c3C([H])([H])[H])c([H])c2F)c1[H]


 39 43  0  0  0  0  0  0  0  0999 V2000
  -88.1722   31.1893   -0.8624 C   0  0  0  0  0  0  0  0  0  0  0  0
  -89.0710   30.3360   -0.2585 C   0  0  0  0  0  0  0  0  0  0  0  0
  -89.8605   29.4661   -0.9588 C   0  0  0  0  0  0  0  0  0  0  0  0
  -89.7808   29.4095   -2.3648 C   0  0  0  0  0  0  0  0  0  0  0  0
  -88.8915   30.2538   -2.9753 C   0  0  0  0  0  0  0  0  0  0  0  0
  -88.1016   31.1286   -2.2300 C   0  0  0  0  0  0  0  0  0  0  0  0
  -87.2568   31.9464   -2.9329 F   0  0  0  0  0  0  0  0  0  0  0  0
  -90.6403   28.5011   -3.0348 N   0  0  0  0  0  0  0  0  0  0  0  0
  -91.8273   28.8210   -3.6979 C   0  0  0  0  0  0  0  0  0  0  0  0
  -92.2424   29.9974   -3.7606 O   0  0  0  0  0  0  0  0  0  0  0  0
  -90.3364   27.4727   -3.0149 H   0  0  0  0  0  0  0  0  0  0  0  0
  -92.6166   27.7532   -4.3423 C   0  0  0  0  0  0  0  0  0  0  0  0
  -92.3245   27.2284   -5.5353 N   0  0  0  0  0  0  0  0  0  0  0  0
  -93.2633   26.3018   -5.7687 N   0  0  0  0  0  0  0  0  0  0  0  0
  -94.1200   26.2446   -4.7552 N   0  0  0  0  0  0  0  0  0  0  0  0
  -93.7327   27.1437   -3.8539 C   0  0  0  0  0  0  0  0  0  0  0  0
  -94.3807   27.4337   -2.5534 C   0  0  0  0  0  0  0  0  0  0  0  0
  -95.2407   25.3604   -4.7051 C   0  0  0  0  0  0  0  0  0  0  0  0
  -94.7719   23.9817   -4.4365 C   0  0  0  0  0  0  0  0  0  0  0  0
  -93.7031   23.7673   -3.6191 C   0  0  0  0  0  0  0  0  0  0  0  0
  -93.2733   22.4616   -3.3694 C   0  0  0  0  0  0  0  0  0  0  0  0
  -93.9378   21.4084   -3.9547 C   0  0  0  0  0  0  0  0  0  0  0  0
  -93.5747   20.1262   -3.7553 F   0  0  0  0  0  0  0  0  0  0  0  0
  -95.0156   21.6555   -4.7774 C   0  0  0  0  0  0  0  0  0  0  0  0
  -95.6771   20.6137   -5.3599 F   0  0  0  0  0  0  0  0  0  0  0  0
  -95.4522   22.9410   -5.0336 C   0  0  0  0  0  0  0  0  0  0  0  0
  -87.4056   32.0397   -0.1430 O   0  0  0  0  0  0  0  0  0  0  0  0
  -83.4072   29.6328    1.6631 C   0  0  0  0  0  0  0  0  0  0  0  0
  -84.7767   29.4886    1.7187 C   0  0  0  0  0  0  0  0  0  0  0  0
  -85.6519   30.3566    1.0851 C   0  0  0  0  0  0  0  0  0  0  0  0
  -85.1358   31.4173    0.3628 C   0  0  0  0  0  0  0  0  0  0  0  0
  -86.0454   32.2717   -0.2627 C   0  0  0  0  0  0  0  0  0  0  0  0
  -85.5048   33.3112   -0.9700 C   0  0  0  0  0  0  0  0  0  0  0  0
  -84.1356   33.4710   -1.0361 C   0  0  0  0  0  0  0  0  0  0  0  0
  -83.2923   32.6161   -0.4122 N   0  0  0  0  0  0  0  0  0  0  0  0
  -83.7752   31.5694    0.3015 C   0  0  0  0  0  0  0  0  0  0  0  0
  -82.9025   30.6901    0.9428 C   0  0  0  0  0  0  0  0  0  0  0  0
  -83.0645   27.4955    2.8193 C   0  0  0  0  0  0  0  0  0  0  0  0
  -82.5539   28.7266    2.3226 O   0  0  0  0  0  0  0  0  0  0  0  0
 38 39  1  0  0  0
 39 28  1  0  0  0
 28 29  2  0  0  0
 29 30  1  0  0  0
 30 31  2  0  0  0
 31 32  1  0  0  0
 32 27  1  0  0  0
 27  1  1  0  0  0
  1  2  2  0  0  0
  2  3  1  0  0  0
  3  4  2  0  0  0
  4  8  1  0  0  0
  8  9  1  0  0  0
  9 10  2  0  0  0
  9 12  1  0  0  0
 12 13  1  0  0  0
 13 14  2  0  0  0
 14 15  1  0  0  0
 15 18  1  0  0  0
 18 19  1  0  0  0
 19 20  2  0  0  0
 20 21  1  0  0  0
 21 22  2  0  0  0
 22 23  1  0  0  0
 22 24  1  0  0  0
 24 25  1  0  0  0
 24 26  2  0  0  0
 15 16  1  0  0  0
 16 17  1  0  0  0
  4  5  1  0  0  0
  5  6  2  0  0  0
  6  7  1  0  0  0
 32 33  2  0  0  0
 33 34  1  0  0  0
 34 35  2  0  0  0
 35 36  1  0  0  0
 36 37  2  0  0  0
 37 28  1  0  0  0
 36 31  1  0  0  0
  6  1  1  0  0  0
 16 12  2  0  0  0
 26 19  1  0  0  0
  8 11  1  0  0  0
M  END
> <minimizedAffinity>
-8.71437

> <CNNscore>
0.0930480361

> <CNNaffinity>
6.3328366280

> <CNN_VS>
0.5892580152

> <CNNaffinity_variance>
0.1594768465

$$$$
[H]c1nc2c([H])c(OC([H])([H])[H])c([H])c([H])c2c(Oc2c([H])c([H])c(N([H])C(=O)c3nnn(C([H])([H])c4c([H])c([H])c(F)c(F)c4[H])c3C([H])([H])[H])c([H])c2F)c1[H]


 39 43  0  0  0  0  0  0  0  0999 V2000
  -86.2353   28.7954    1.5123 C   0  0  0  0  0  0  0  0  0  0  0  0
  -87.4360   28.9060    0.8440 C   0  0  0  0  0  0  0  0  0  0  0  0
  -88.1556   27.8237    0.4182 C   0  0  0  0  0  0  0  0  0  0  0  0
  -87.6808   26.5180    0.6545 C   0  0  0  0  0  0  0  0  0  0  0  0
  -86.4880   26.3965    1.3171 C   0  0  0  0  0  0  0  0  0  0  0  0
  -85.7802   27.5221    1.7373 C   0  0  0  0  0  0  0  0  0  0  0  0
  -84.5886   27.2978    2.3747 F   0  0  0  0  0  0  0  0  0  0  0  0
  -88.4627   25.4377    0.1702 N   0  0  0  0  0  0  0  0  0  0  0  0
  -89.5961   24.8971    0.7821 C   0  0  0  0  0  0  0  0  0  0  0  0
  -90.0357   25.3528    1.8587 O   0  0  0  0  0  0  0  0  0  0  0  0
  -88.1335   25.0027   -0.7532 H   0  0  0  0  0  0  0  0  0  0  0  0
  -90.2974   23.7619    0.1513 C   0  0  0  0  0  0  0  0  0  0  0  0
  -89.8584   22.5011    0.1908 N   0  0  0  0  0  0  0  0  0  0  0  0
  -90.7586   21.7774   -0.4877 N   0  0  0  0  0  0  0  0  0  0  0  0
  -91.7338   22.5573   -0.9406 N   0  0  0  0  0  0  0  0  0  0  0  0
  -91.4637   23.8008   -0.5515 C   0  0  0  0  0  0  0  0  0  0  0  0
  -92.2752   25.0113   -0.8190 C   0  0  0  0  0  0  0  0  0  0  0  0
  -92.8422   22.0864   -1.7088 C   0  0  0  0  0  0  0  0  0  0  0  0
  -93.8349   21.4547   -0.8098 C   0  0  0  0  0  0  0  0  0  0  0  0
  -93.8895   20.0982   -0.6930 C   0  0  0  0  0  0  0  0  0  0  0  0
  -94.8271   19.5141    0.1622 C   0  0  0  0  0  0  0  0  0  0  0  0
  -95.6843   20.3199    0.8759 C   0  0  0  0  0  0  0  0  0  0  0  0
  -96.6109   19.8207    1.7172 F   0  0  0  0  0  0  0  0  0  0  0  0
  -95.6062   21.6889    0.7375 C   0  0  0  0  0  0  0  0  0  0  0  0
  -96.4546   22.4915    1.4435 F   0  0  0  0  0  0  0  0  0  0  0  0
  -94.6843   22.2810   -0.1041 C   0  0  0  0  0  0  0  0  0  0  0  0
  -85.5456   29.8847    1.9200 O   0  0  0  0  0  0  0  0  0  0  0  0
  -86.1082   33.4535   -1.5426 C   0  0  0  0  0  0  0  0  0  0  0  0
  -86.9325   32.6587   -0.7756 C   0  0  0  0  0  0  0  0  0  0  0  0
  -86.4508   31.7273    0.1305 C   0  0  0  0  0  0  0  0  0  0  0  0
  -85.0830   31.5828    0.2774 C   0  0  0  0  0  0  0  0  0  0  0  0
  -84.6324   30.6359    1.1987 C   0  0  0  0  0  0  0  0  0  0  0  0
  -83.2746   30.5163    1.3221 C   0  0  0  0  0  0  0  0  0  0  0  0
  -82.4342   31.3038    0.5618 C   0  0  0  0  0  0  0  0  0  0  0  0
  -82.9181   32.2094   -0.3197 N   0  0  0  0  0  0  0  0  0  0  0  0
  -84.2548   32.3684   -0.4809 C   0  0  0  0  0  0  0  0  0  0  0  0
  -84.7497   33.3033   -1.3903 C   0  0  0  0  0  0  0  0  0  0  0  0
  -88.0310   34.3807   -2.7533 C   0  0  0  0  0  0  0  0  0  0  0  0
  -86.6408   34.3881   -2.4521 O   0  0  0  0  0  0  0  0  0  0  0  0
 38 39  1  0  0  0
 39 28  1  0  0  0
 28 29  2  0  0  0
 29 30  1  0  0  0
 30 31  2  0  0  0
 31 32  1  0  0  0
 32 27  1  0  0  0
 27  1  1  0  0  0
  1  2  2  0  0  0
  2  3  1  0  0  0
  3  4  2  0  0  0
  4  8  1  0  0  0
  8  9  1  0  0  0
  9 10  2  0  0  0
  9 12  1  0  0  0
 12 13  1  0  0  0
 13 14  2  0  0  0
 14 15  1  0  0  0
 15 18  1  0  0  0
 18 19  1  0  0  0
 19 20  2  0  0  0
 20 21  1  0  0  0
 21 22  2  0  0  0
 22 23  1  0  0  0
 22 24  1  0  0  0
 24 25  1  0  0  0
 24 26  2  0  0  0
 15 16  1  0  0  0
 16 17  1  0  0  0
  4  5  1  0  0  0
  5  6  2  0  0  0
  6  7  1  0  0  0
 32 33  2  0  0  0
 33 34  1  0  0  0
 34 35  2  0  0  0
 35 36  1  0  0  0
 36 37  2  0  0  0
 37 28  1  0  0  0
 36 31  1  0  0  0
  6  1  1  0  0  0
 16 12  2  0  0  0
 26 19  1  0  0  0
  8 11  1  0  0  0
M  END
> <minimizedAffinity>
-8.83938

> <CNNscore>
0.0927805156

> <CNNaffinity>
6.5303564072

> <CNN_VS>
0.6058898568

> <CNNaffinity_variance>
0.2034798861

$$$$
[H]c1nc2c([H])c(OC([H])([H])[H])c([H])c([H])c2c(Oc2c([H])c([H])c(N([H])C(=O)c3nnn(C([H])([H])c4c([H])c([H])c(F)c(F)c4[H])c3C([H])([H])[H])c([H])c2F)c1[H]


 39 43  0  0  0  0  0  0  0  0999 V2000
  -87.9114   35.3878   -3.6447 C   0  0  0  0  0  0  0  0  0  0  0  0
  -86.8531   34.5315   -3.4273 C   0  0  0  0  0  0  0  0  0  0  0  0
  -87.0108   33.2482   -2.9815 C   0  0  0  0  0  0  0  0  0  0  0  0
  -88.2994   32.7406   -2.7209 C   0  0  0  0  0  0  0  0  0  0  0  0
  -89.3583   33.5833   -2.9327 C   0  0  0  0  0  0  0  0  0  0  0  0
  -89.1611   34.8866   -3.3879 C   0  0  0  0  0  0  0  0  0  0  0  0
  -90.2813   35.6581   -3.5509 F   0  0  0  0  0  0  0  0  0  0  0  0
  -88.3954   31.4088   -2.2411 N   0  0  0  0  0  0  0  0  0  0  0  0
  -88.1834   30.2447   -2.9834 C   0  0  0  0  0  0  0  0  0  0  0  0
  -87.8695   30.2899   -4.1915 O   0  0  0  0  0  0  0  0  0  0  0  0
  -88.6634   31.3051   -1.2078 H   0  0  0  0  0  0  0  0  0  0  0  0
  -88.3311   28.9266   -2.3358 C   0  0  0  0  0  0  0  0  0  0  0  0
  -89.2585   28.0286   -2.6786 N   0  0  0  0  0  0  0  0  0  0  0  0
  -89.0689   26.9778   -1.8697 N   0  0  0  0  0  0  0  0  0  0  0  0
  -88.0544   27.2062   -1.0433 N   0  0  0  0  0  0  0  0  0  0  0  0
  -87.5801   28.4186   -1.3191 C   0  0  0  0  0  0  0  0  0  0  0  0
  -86.4428   29.0992   -0.6568 C   0  0  0  0  0  0  0  0  0  0  0  0
  -87.6064   26.2798   -0.0527 C   0  0  0  0  0  0  0  0  0  0  0  0
  -88.5063   26.3372    1.1218 C   0  0  0  0  0  0  0  0  0  0  0  0
  -88.3459   27.3100    2.0624 C   0  0  0  0  0  0  0  0  0  0  0  0
  -89.2044   27.3567    3.1636 C   0  0  0  0  0  0  0  0  0  0  0  0
  -90.2021   26.4166    3.2822 C   0  0  0  0  0  0  0  0  0  0  0  0
  -91.0631   26.4056    4.3187 F   0  0  0  0  0  0  0  0  0  0  0  0
  -90.3404   25.4441    2.3155 C   0  0  0  0  0  0  0  0  0  0  0  0
  -91.3287   24.5099    2.4297 F   0  0  0  0  0  0  0  0  0  0  0  0
  -89.4993   25.3852    1.2211 C   0  0  0  0  0  0  0  0  0  0  0  0
  -87.7238   36.6526   -4.0848 O   0  0  0  0  0  0  0  0  0  0  0  0
  -84.3418   39.1275   -6.8196 C   0  0  0  0  0  0  0  0  0  0  0  0
  -84.4275   38.6299   -5.5372 C   0  0  0  0  0  0  0  0  0  0  0  0
  -85.5457   37.9642   -5.0606 C   0  0  0  0  0  0  0  0  0  0  0  0
  -86.6282   37.7873   -5.9035 C   0  0  0  0  0  0  0  0  0  0  0  0
  -87.7375   37.1124   -5.3912 C   0  0  0  0  0  0  0  0  0  0  0  0
  -88.7922   36.9525   -6.2487 C   0  0  0  0  0  0  0  0  0  0  0  0
  -88.7238   37.4446   -7.5362 C   0  0  0  0  0  0  0  0  0  0  0  0
  -87.6256   38.0932   -7.9885 N   0  0  0  0  0  0  0  0  0  0  0  0
  -86.5528   38.2786   -7.1806 C   0  0  0  0  0  0  0  0  0  0  0  0
  -85.4225   38.9473   -7.6508 C   0  0  0  0  0  0  0  0  0  0  0  0
  -81.8962   39.2839   -6.9508 C   0  0  0  0  0  0  0  0  0  0  0  0
  -83.1851   39.7983   -7.2628 O   0  0  0  0  0  0  0  0  0  0  0  0
 38 39  1  0  0  0
 39 28  1  0  0  0
 28 29  2  0  0  0
 29 30  1  0  0  0
 30 31  2  0  0  0
 31 32  1  0  0  0
 32 27  1  0  0  0
 27  1  1  0  0  0
  1  2  2  0  0  0
  2  3  1  0  0  0
  3  4  2  0  0  0
  4  8  1  0  0  0
  8  9  1  0  0  0
  9 10  2  0  0  0
  9 12  1  0  0  0
 12 13  1  0  0  0
 13 14  2  0  0  0
 14 15  1  0  0  0
 15 18  1  0  0  0
 18 19  1  0  0  0
 19 20  2  0  0  0
 20 21  1  0  0  0
 21 22  2  0  0  0
 22 23  1  0  0  0
 22 24  1  0  0  0
 24 25  1  0  0  0
 24 26  2  0  0  0
 15 16  1  0  0  0
 16 17  1  0  0  0
  4  5  1  0  0  0
  5  6  2  0  0  0
  6  7  1  0  0  0
 32 33  2  0  0  0
 33 34  1  0  0  0
 34 35  2  0  0  0
 35 36  1  0  0  0
 36 37  2  0  0  0
 37 28  1  0  0  0
 36 31  1  0  0  0
  6  1  1  0  0  0
 16 12  2  0  0  0
 26 19  1  0  0  0
  8 11  1  0  0  0
M  END
> <minimizedAffinity>
-8.75910

> <CNNscore>
0.0847195163

> <CNNaffinity>
6.0889139175

> <CNN_VS>
0.5158498287

> <CNNaffinity_variance>
0.4447980821

$$$$
[H]c1c([H])c([H])c2c(c1[H])c1c3c(c4c5c([H])c([H])c([H])c([H])c5n5c4c1n2[C@@]1([H])O[C@]5(C([H])([H])[H])[C@@]([H])(OC([H])([H])[H])[C@@]([H])(N([H])C([H])([H])[H])C1([H])[H])C([H])([H])N([H])C3=O


 37 44  0  0  0  0  0  0  0  0999 V2000
  -88.1855   25.9693   -0.1464 C   0  0  0  0  0  0  0  0  0  0  0  0
  -87.1306   26.4856    0.7424 C   0  0  0  0  0  0  0  0  0  0  0  0
  -87.5406   27.6169    1.6271 C   0  0  0  0  0  0  0  0  0  0  0  0
  -88.8074   27.9025    1.7650 O   0  0  0  0  0  0  0  0  0  0  0  0
  -89.7549   27.7392    0.7809 C   0  0  0  0  0  0  0  0  0  0  0  0
  -91.0483   27.7442    1.6219 C   0  0  0  0  0  0  0  0  0  0  0  0
  -89.5935   26.4228    0.1679 C   0  0  0  0  0  0  0  0  0  0  0  0
  -89.7079   28.8952   -0.0988 N   0  0  0  0  0  0  0  0  0  0  0  0
  -90.6811   29.4021   -0.8623 C   0  0  0  0  0  0  0  0  0  0  0  0
  -91.9654   29.0072   -1.0900 C   0  0  0  0  0  0  0  0  0  0  0  0
  -92.7801   29.7287   -1.9497 C   0  0  0  0  0  0  0  0  0  0  0  0
  -92.3513   30.8563   -2.6065 C   0  0  0  0  0  0  0  0  0  0  0  0
  -91.0374   31.2721   -2.3827 C   0  0  0  0  0  0  0  0  0  0  0  0
  -90.2531   30.5367   -1.5249 C   0  0  0  0  0  0  0  0  0  0  0  0
  -88.9379   30.7345   -1.1439 C   0  0  0  0  0  0  0  0  0  0  0  0
  -87.9883   31.6962   -1.4600 C   0  0  0  0  0  0  0  0  0  0  0  0
  -88.1089   32.8716   -2.3752 C   0  0  0  0  0  0  0  0  0  0  0  0
  -86.8393   33.5372   -2.3149 N   0  0  0  0  0  0  0  0  0  0  0  0
  -85.9657   32.8218   -1.4453 C   0  0  0  0  0  0  0  0  0  0  0  0
  -84.8075   33.1954   -1.2438 O   0  0  0  0  0  0  0  0  0  0  0  0
  -86.7131   31.6874   -0.9338 C   0  0  0  0  0  0  0  0  0  0  0  0
  -86.4236   30.6561   -0.0648 C   0  0  0  0  0  0  0  0  0  0  0  0
  -85.2952   30.2959    0.6409 C   0  0  0  0  0  0  0  0  0  0  0  0
  -84.0417   30.8253    0.7605 C   0  0  0  0  0  0  0  0  0  0  0  0
  -83.1197   30.1846    1.5873 C   0  0  0  0  0  0  0  0  0  0  0  0
  -83.4196   29.0381    2.2901 C   0  0  0  0  0  0  0  0  0  0  0  0
  -84.6860   28.5050    2.1676 C   0  0  0  0  0  0  0  0  0  0  0  0
  -85.5848   29.1286    1.3624 C   0  0  0  0  0  0  0  0  0  0  0  0
  -86.8509   28.8044    1.0929 N   0  0  0  0  0  0  0  0  0  0  0  0
  -87.3720   29.6986    0.2480 C   0  0  0  0  0  0  0  0  0  0  0  0
  -88.6430   29.7356   -0.2929 C   0  0  0  0  0  0  0  0  0  0  0  0
  -86.6027   34.4272   -2.8445 H   0  0  0  0  0  0  0  0  0  0  0  0
  -86.6321   26.9423   -1.5989 C   0  0  0  0  0  0  0  0  0  0  0  0
  -87.9132   26.2680   -1.5586 N   0  0  0  0  0  0  0  0  0  0  0  0
  -87.8403   25.4272   -2.1385 H   0  0  0  0  0  0  0  0  0  0  0  0
  -90.3044   26.1510   -0.9906 O   0  0  0  0  0  0  0  0  0  0  0  0
  -91.2256   25.1456   -0.8985 C   0  0  0  0  0  0  0  0  0  0  0  0
 33 34  1  0  0  0
 34  1  1  0  0  0
  1  2  1  0  0  0
  2  3  1  0  0  0
  3  4  1  0  0  0
  4  5  1  0  0  0
  5  6  1  0  0  0
  5  7  1  0  0  0
  7 36  1  0  0  0
 36 37  1  0  0  0
  5  8  1  0  0  0
  8  9  1  0  0  0
  9 10  2  0  0  0
 10 11  1  0  0  0
 11 12  2  0  0  0
 12 13  1  0  0  0
 13 14  2  0  0  0
 14 15  1  0  0  0
 15 16  2  0  0  0
 16 17  1  0  0  0
 17 18  1  0  0  0
 18 19  1  0  0  0
 19 20  2  0  0  0
 19 21  1  0  0  0
 21 22  2  0  0  0
 22 23  1  0  0  0
 23 24  2  0  0  0
 24 25  1  0  0  0
 25 26  2  0  0  0
 26 27  1  0  0  0
 27 28  2  0  0  0
 28 29  1  0  0  0
 29 30  1  0  0  0
 30 31  2  0  0  0
  7  1  1  0  0  0
 31  8  1  0  0  0
 29  3  1  0  0  0
 14  9  1  0  0  0
 31 15  1  0  0  0
 21 16  1  0  0  0
 30 22  1  0  0  0
 28 23  1  0  0  0
 34 35  1  0  0  0
 18 32  1  0  0  0
M  END
> <minimizedAffinity>
-10.88776

> <CNNscore>
0.4939234257

> <CNNaffinity>
6.9002966881

> <CNN_VS>
3.4082181454

> <CNNaffinity_variance>
0.1545022726

$$$$
[H]c1c([H])c([H])c2c(c1[H])c1c3c(c4c5c([H])c([H])c([H])c([H])c5n5c4c1n2[C@@]1([H])O[C@]5(C([H])([H])[H])[C@@]([H])(OC([H])([H])[H])[C@@]([H])(N([H])C([H])([H])[H])C1([H])[H])C([H])([H])N([H])C3=O


 37 44  0  0  0  0  0  0  0  0999 V2000
  -88.3905   27.3909   -1.3457 C   0  0  0  0  0  0  0  0  0  0  0  0
  -87.5705   27.1197   -0.1527 C   0  0  0  0  0  0  0  0  0  0  0  0
  -87.7299   28.0973    0.9652 C   0  0  0  0  0  0  0  0  0  0  0  0
  -88.7267   28.9407    0.9484 O   0  0  0  0  0  0  0  0  0  0  0  0
  -89.2761   29.4754   -0.1941 C   0  0  0  0  0  0  0  0  0  0  0  0
  -90.6431   29.9522    0.3390 C   0  0  0  0  0  0  0  0  0  0  0  0
  -89.4937   28.4103   -1.1702 C   0  0  0  0  0  0  0  0  0  0  0  0
  -88.4625   30.6056   -0.6099 N   0  0  0  0  0  0  0  0  0  0  0  0
  -88.8235   31.6731   -1.3291 C   0  0  0  0  0  0  0  0  0  0  0  0
  -90.0024   32.0261   -1.9146 C   0  0  0  0  0  0  0  0  0  0  0  0
  -90.1075   33.2152   -2.6207 C   0  0  0  0  0  0  0  0  0  0  0  0
  -89.0556   34.0860   -2.7681 C   0  0  0  0  0  0  0  0  0  0  0  0
  -87.8416   33.7366   -2.1736 C   0  0  0  0  0  0  0  0  0  0  0  0
  -87.7674   32.5514   -1.4796 C   0  0  0  0  0  0  0  0  0  0  0  0
  -86.6954   31.9855   -0.8128 C   0  0  0  0  0  0  0  0  0  0  0  0
  -85.3837   32.3878   -0.6027 C   0  0  0  0  0  0  0  0  0  0  0  0
  -84.6921   33.6250   -1.0766 C   0  0  0  0  0  0  0  0  0  0  0  0
  -83.3571   33.5417   -0.5577 N   0  0  0  0  0  0  0  0  0  0  0  0
  -83.2028   32.3264    0.1707 C   0  0  0  0  0  0  0  0  0  0  0  0
  -82.1311   32.0236    0.7011 O   0  0  0  0  0  0  0  0  0  0  0  0
  -84.4799   31.6382    0.1214 C   0  0  0  0  0  0  0  0  0  0  0  0
  -84.9527   30.4476    0.6329 C   0  0  0  0  0  0  0  0  0  0  0  0
  -84.3797   29.4383    1.3772 C   0  0  0  0  0  0  0  0  0  0  0  0
  -83.1350   29.2361    1.9022 C   0  0  0  0  0  0  0  0  0  0  0  0
  -82.8943   28.0683    2.6253 C   0  0  0  0  0  0  0  0  0  0  0  0
  -83.8602   27.1081    2.8332 C   0  0  0  0  0  0  0  0  0  0  0  0
  -85.1165   27.3143    2.3019 C   0  0  0  0  0  0  0  0  0  0  0  0
  -85.3517   28.4515    1.5974 C   0  0  0  0  0  0  0  0  0  0  0  0
  -86.4718   28.8637    1.0004 N   0  0  0  0  0  0  0  0  0  0  0  0
  -86.2606   30.0490    0.4214 C   0  0  0  0  0  0  0  0  0  0  0  0
  -87.1441   30.8233   -0.3060 C   0  0  0  0  0  0  0  0  0  0  0  0
  -82.6094   34.2820   -0.7036 H   0  0  0  0  0  0  0  0  0  0  0  0
  -86.1922   27.5744   -2.1222 C   0  0  0  0  0  0  0  0  0  0  0  0
  -87.5735   27.7949   -2.4977 N   0  0  0  0  0  0  0  0  0  0  0  0
  -87.7606   27.2373   -3.3360 H   0  0  0  0  0  0  0  0  0  0  0  0
  -89.8318   28.7712   -2.4652 O   0  0  0  0  0  0  0  0  0  0  0  0
  -91.1087   28.4719   -2.8497 C   0  0  0  0  0  0  0  0  0  0  0  0
 33 34  1  0  0  0
 34  1  1  0  0  0
  1  2  1  0  0  0
  2  3  1  0  0  0
  3  4  1  0  0  0
  4  5  1  0  0  0
  5  6  1  0  0  0
  5  7  1  0  0  0
  7 36  1  0  0  0
 36 37  1  0  0  0
  5  8  1  0  0  0
  8  9  1  0  0  0
  9 10  2  0  0  0
 10 11  1  0  0  0
 11 12  2  0  0  0
 12 13  1  0  0  0
 13 14  2  0  0  0
 14 15  1  0  0  0
 15 16  2  0  0  0
 16 17  1  0  0  0
 17 18  1  0  0  0
 18 19  1  0  0  0
 19 20  2  0  0  0
 19 21  1  0  0  0
 21 22  2  0  0  0
 22 23  1  0  0  0
 23 24  2  0  0  0
 24 25  1  0  0  0
 25 26  2  0  0  0
 26 27  1  0  0  0
 27 28  2  0  0  0
 28 29  1  0  0  0
 29 30  1  0  0  0
 30 31  2  0  0  0
  7  1  1  0  0  0
 31  8  1  0  0  0
 29  3  1  0  0  0
 14  9  1  0  0  0
 31 15  1  0  0  0
 21 16  1  0  0  0
 30 22  1  0  0  0
 28 23  1  0  0  0
 34 35  1  0  0  0
 18 32  1  0  0  0
M  END
> <minimizedAffinity>
-9.95777

> <CNNscore>
0.2291288078

> <CNNaffinity>
6.5785737038

> <CNN_VS>
1.5073407888

> <CNNaffinity_variance>
0.5726304054

$$$$
[H]c1c([H])c([H])c2c(c1[H])c1c3c(c4c5c([H])c([H])c([H])c([H])c5n5c4c1n2[C@@]1([H])O[C@]5(C([H])([H])[H])[C@@]([H])(OC([H])([H])[H])[C@@]([H])(N([H])C([H])([H])[H])C1([H])[H])C([H])([H])N([H])C3=O


 37 44  0  0  0  0  0  0  0  0999 V2000
  -89.1233   30.2082   -3.1858 C   0  0  0  0  0  0  0  0  0  0  0  0
  -89.8584   29.3425   -2.2479 C   0  0  0  0  0  0  0  0  0  0  0  0
  -89.9411   29.8490   -0.8453 C   0  0  0  0  0  0  0  0  0  0  0  0
  -89.6173   31.0871   -0.5856 O   0  0  0  0  0  0  0  0  0  0  0  0
  -88.6528   31.7987   -1.2611 C   0  0  0  0  0  0  0  0  0  0  0  0
  -89.0497   33.2435   -0.8937 C   0  0  0  0  0  0  0  0  0  0  0  0
  -88.8306   31.6097   -2.6989 C   0  0  0  0  0  0  0  0  0  0  0  0
  -87.3553   31.4621   -0.6993 N   0  0  0  0  0  0  0  0  0  0  0  0
  -86.2370   32.1944   -0.6860 C   0  0  0  0  0  0  0  0  0  0  0  0
  -85.9407   33.4219   -1.1985 C   0  0  0  0  0  0  0  0  0  0  0  0
  -84.6728   33.9615   -1.0406 C   0  0  0  0  0  0  0  0  0  0  0  0
  -83.6655   33.3067   -0.3749 C   0  0  0  0  0  0  0  0  0  0  0  0
  -83.9552   32.0479    0.1550 C   0  0  0  0  0  0  0  0  0  0  0  0
  -85.2212   31.5385   -0.0172 C   0  0  0  0  0  0  0  0  0  0  0  0
  -85.7507   30.3313    0.4028 C   0  0  0  0  0  0  0  0  0  0  0  0
  -85.2327   29.2608    1.1186 C   0  0  0  0  0  0  0  0  0  0  0  0
  -83.8566   29.0774    1.6719 C   0  0  0  0  0  0  0  0  0  0  0  0
  -83.8753   27.8047    2.3341 N   0  0  0  0  0  0  0  0  0  0  0  0
  -85.1622   27.2097    2.1892 C   0  0  0  0  0  0  0  0  0  0  0  0
  -85.4176   26.1004    2.6645 O   0  0  0  0  0  0  0  0  0  0  0  0
  -85.9766   28.1417    1.4308 C   0  0  0  0  0  0  0  0  0  0  0  0
  -87.2824   28.1392    0.9864 C   0  0  0  0  0  0  0  0  0  0  0  0
  -88.3161   27.2313    1.0779 C   0  0  0  0  0  0  0  0  0  0  0  0
  -88.4481   25.9986    1.6513 C   0  0  0  0  0  0  0  0  0  0  0  0
  -89.6737   25.3410    1.5517 C   0  0  0  0  0  0  0  0  0  0  0  0
  -90.7591   25.8825    0.8983 C   0  0  0  0  0  0  0  0  0  0  0  0
  -90.6234   27.1275    0.3198 C   0  0  0  0  0  0  0  0  0  0  0  0
  -89.4299   27.7688    0.4164 C   0  0  0  0  0  0  0  0  0  0  0  0
  -89.0678   28.9635   -0.0549 N   0  0  0  0  0  0  0  0  0  0  0  0
  -87.7958   29.2074    0.2727 C   0  0  0  0  0  0  0  0  0  0  0  0
  -87.0266   30.3168   -0.0223 C   0  0  0  0  0  0  0  0  0  0  0  0
  -83.0470   27.3843    2.8495 H   0  0  0  0  0  0  0  0  0  0  0  0
  -87.8335   28.2604   -3.0764 C   0  0  0  0  0  0  0  0  0  0  0  0
  -87.8584   29.6018   -3.6217 N   0  0  0  0  0  0  0  0  0  0  0  0
  -87.7816   29.5249   -4.6400 H   0  0  0  0  0  0  0  0  0  0  0  0
  -87.8296   32.0610   -3.5450 O   0  0  0  0  0  0  0  0  0  0  0  0
  -88.1761   33.0871   -4.3786 C   0  0  0  0  0  0  0  0  0  0  0  0
 33 34  1  0  0  0
 34  1  1  0  0  0
  1  2  1  0  0  0
  2  3  1  0  0  0
  3  4  1  0  0  0
  4  5  1  0  0  0
  5  6  1  0  0  0
  5  7  1  0  0  0
  7 36  1  0  0  0
 36 37  1  0  0  0
  5  8  1  0  0  0
  8  9  1  0  0  0
  9 10  2  0  0  0
 10 11  1  0  0  0
 11 12  2  0  0  0
 12 13  1  0  0  0
 13 14  2  0  0  0
 14 15  1  0  0  0
 15 16  2  0  0  0
 16 17  1  0  0  0
 17 18  1  0  0  0
 18 19  1  0  0  0
 19 20  2  0  0  0
 19 21  1  0  0  0
 21 22  2  0  0  0
 22 23  1  0  0  0
 23 24  2  0  0  0
 24 25  1  0  0  0
 25 26  2  0  0  0
 26 27  1  0  0  0
 27 28  2  0  0  0
 28 29  1  0  0  0
 29 30  1  0  0  0
 30 31  2  0  0  0
  7  1  1  0  0  0
 31  8  1  0  0  0
 29  3  1  0  0  0
 14  9  1  0  0  0
 31 15  1  0  0  0
 21 16  1  0  0  0
 30 22  1  0  0  0
 28 23  1  0  0  0
 34 35  1  0  0  0
 18 32  1  0  0  0
M  END
> <minimizedAffinity>
-10.22291

> <CNNscore>
0.2255734354

> <CNNaffinity>
6.7412385941

> <CNN_VS>
1.5206443071

> <CNNaffinity_variance>
0.1352533698

$$$$
[H]c1c([H])c([H])c2c(c1[H])c1c3c(c4c5c([H])c([H])c([H])c([H])c5n5c4c1n2[C@@]1([H])O[C@]5(C([H])([H])[H])[C@@]([H])(OC([H])([H])[H])[C@@]([H])(N([H])C([H])([H])[H])C1([H])[H])C([H])([H])N([H])C3=O


 37 44  0  0  0  0  0  0  0  0999 V2000
  -90.8335   29.7277   -1.1477 C   0  0  0  0  0  0  0  0  0  0  0  0
  -90.4437   30.6047   -2.2650 C   0  0  0  0  0  0  0  0  0  0  0  0
  -89.2458   30.1580   -3.0372 C   0  0  0  0  0  0  0  0  0  0  0  0
  -88.7874   28.9462   -2.8742 O   0  0  0  0  0  0  0  0  0  0  0  0
  -88.8445   28.2436   -1.6926 C   0  0  0  0  0  0  0  0  0  0  0  0
  -88.6432   26.8020   -2.2041 C   0  0  0  0  0  0  0  0  0  0  0  0
  -90.1852   28.3616   -1.1241 C   0  0  0  0  0  0  0  0  0  0  0  0
  -87.7276   28.6551   -0.8587 N   0  0  0  0  0  0  0  0  0  0  0  0
  -87.1119   27.9682    0.1089 C   0  0  0  0  0  0  0  0  0  0  0  0
  -87.3342   26.7317    0.6370 C   0  0  0  0  0  0  0  0  0  0  0  0
  -86.5299   26.2496    1.6589 C   0  0  0  0  0  0  0  0  0  0  0  0
  -85.4875   26.9720    2.1862 C   0  0  0  0  0  0  0  0  0  0  0  0
  -85.2487   28.2408    1.6547 C   0  0  0  0  0  0  0  0  0  0  0  0
  -86.0626   28.6922    0.6420 C   0  0  0  0  0  0  0  0  0  0  0  0
  -86.0362   29.8953   -0.0406 C   0  0  0  0  0  0  0  0  0  0  0  0
  -85.2204   31.0158    0.0340 C   0  0  0  0  0  0  0  0  0  0  0  0
  -84.0624   31.2771    0.9419 C   0  0  0  0  0  0  0  0  0  0  0  0
  -83.5742   32.5761    0.5777 N   0  0  0  0  0  0  0  0  0  0  0  0
  -84.3801   33.1135   -0.4678 C   0  0  0  0  0  0  0  0  0  0  0  0
  -84.1626   34.2319   -0.9404 O   0  0  0  0  0  0  0  0  0  0  0  0
  -85.3895   32.1177   -0.7786 C   0  0  0  0  0  0  0  0  0  0  0  0
  -86.4290   32.0496   -1.6827 C   0  0  0  0  0  0  0  0  0  0  0  0
  -86.9218   32.9197   -2.6321 C   0  0  0  0  0  0  0  0  0  0  0  0
  -86.5648   34.1705   -3.0490 C   0  0  0  0  0  0  0  0  0  0  0  0
  -87.3045   34.7748   -4.0650 C   0  0  0  0  0  0  0  0  0  0  0  0
  -88.3820   34.1629   -4.6673 C   0  0  0  0  0  0  0  0  0  0  0  0
  -88.7409   32.8998   -4.2445 C   0  0  0  0  0  0  0  0  0  0  0  0
  -88.0209   32.3104   -3.2549 C   0  0  0  0  0  0  0  0  0  0  0  0
  -88.1765   31.1110   -2.6911 N   0  0  0  0  0  0  0  0  0  0  0  0
  -87.2408   30.9316   -1.7545 C   0  0  0  0  0  0  0  0  0  0  0  0
  -87.0447   29.8411   -0.9289 C   0  0  0  0  0  0  0  0  0  0  0  0
  -82.7378   33.0510    1.0288 H   0  0  0  0  0  0  0  0  0  0  0  0
  -90.0631   31.6772   -0.1109 C   0  0  0  0  0  0  0  0  0  0  0  0
  -90.6093   30.3630    0.1576 N   0  0  0  0  0  0  0  0  0  0  0  0
  -91.4720   30.4887    0.6947 H   0  0  0  0  0  0  0  0  0  0  0  0
  -90.3863   27.9127    0.1718 O   0  0  0  0  0  0  0  0  0  0  0  0
  -91.3131   26.9190    0.3177 C   0  0  0  0  0  0  0  0  0  0  0  0
 33 34  1  0  0  0
 34  1  1  0  0  0
  1  2  1  0  0  0
  2  3  1  0  0  0
  3  4  1  0  0  0
  4  5  1  0  0  0
  5  6  1  0  0  0
  5  7  1  0  0  0
  7 36  1  0  0  0
 36 37  1  0  0  0
  5  8  1  0  0  0
  8  9  1  0  0  0
  9 10  2  0  0  0
 10 11  1  0  0  0
 11 12  2  0  0  0
 12 13  1  0  0  0
 13 14  2  0  0  0
 14 15  1  0  0  0
 15 16  2  0  0  0
 16 17  1  0  0  0
 17 18  1  0  0  0
 18 19  1  0  0  0
 19 20  2  0  0  0
 19 21  1  0  0  0
 21 22  2  0  0  0
 22 23  1  0  0  0
 23 24  2  0  0  0
 24 25  1  0  0  0
 25 26  2  0  0  0
 26 27  1  0  0  0
 27 28  2  0  0  0
 28 29  1  0  0  0
 29 30  1  0  0  0
 30 31  2  0  0  0
  7  1  1  0  0  0
 31  8  1  0  0  0
 29  3  1  0  0  0
 14  9  1  0  0  0
 31 15  1  0  0  0
 21 16  1  0  0  0
 30 22  1  0  0  0
 28 23  1  0  0  0
 34 35  1  0  0  0
 18 32  1  0  0  0
M  END
> <minimizedAffinity>
-8.67784

> <CNNscore>
0.2188499868

> <CNNaffinity>
6.3617639542

> <CNN_VS>
1.3922719955

> <CNNaffinity_variance>
0.4248330593

$$$$
[H]c1c([H])c([H])c2c(c1[H])c1c3c(c4c5c([H])c([H])c([H])c([H])c5n5c4c1n2[C@@]1([H])O[C@]5(C([H])([H])[H])[C@@]([H])(OC([H])([H])[H])[C@@]([H])(N([H])C([H])([H])[H])C1([H])[H])C([H])([H])N([H])C3=O


 37 44  0  0  0  0  0  0  0  0999 V2000
  -93.4637   23.4724   -3.7476 C   0  0  0  0  0  0  0  0  0  0  0  0
  -94.1053   22.4597   -2.8920 C   0  0  0  0  0  0  0  0  0  0  0  0
  -94.7809   22.9929   -1.6712 C   0  0  0  0  0  0  0  0  0  0  0  0
  -94.9980   24.2758   -1.5617 O   0  0  0  0  0  0  0  0  0  0  0  0
  -94.1798   25.2521   -2.0817 C   0  0  0  0  0  0  0  0  0  0  0  0
  -95.1410   26.4588   -2.0921 C   0  0  0  0  0  0  0  0  0  0  0  0
  -93.8340   24.9100   -3.4593 C   0  0  0  0  0  0  0  0  0  0  0  0
  -93.0833   25.4749   -1.1541 N   0  0  0  0  0  0  0  0  0  0  0  0
  -92.3459   26.5768   -0.9839 C   0  0  0  0  0  0  0  0  0  0  0  0
  -92.3482   27.7858   -1.6129 C   0  0  0  0  0  0  0  0  0  0  0  0
  -91.4558   28.7770   -1.2327 C   0  0  0  0  0  0  0  0  0  0  0  0
  -90.5393   28.6031   -0.2245 C   0  0  0  0  0  0  0  0  0  0  0  0
  -90.5256   27.3691    0.4283 C   0  0  0  0  0  0  0  0  0  0  0  0
  -91.4224   26.4054    0.0296 C   0  0  0  0  0  0  0  0  0  0  0  0
  -91.6059   25.1199    0.5071 C   0  0  0  0  0  0  0  0  0  0  0  0
  -90.9964   24.3800    1.5108 C   0  0  0  0  0  0  0  0  0  0  0  0
  -89.8801   24.7733    2.4233 C   0  0  0  0  0  0  0  0  0  0  0  0
  -89.6614   23.6388    3.2740 N   0  0  0  0  0  0  0  0  0  0  0  0
  -90.5556   22.5901    2.9109 C   0  0  0  0  0  0  0  0  0  0  0  0
  -90.5462   21.5032    3.4941 O   0  0  0  0  0  0  0  0  0  0  0  0
  -91.3678   23.0866    1.8150 C   0  0  0  0  0  0  0  0  0  0  0  0
  -92.3910   22.5561    1.0573 C   0  0  0  0  0  0  0  0  0  0  0  0
  -93.0249   21.3319    1.0397 C   0  0  0  0  0  0  0  0  0  0  0  0
  -92.8935   20.1849    1.7697 C   0  0  0  0  0  0  0  0  0  0  0  0
  -93.7255   19.1049    1.4767 C   0  0  0  0  0  0  0  0  0  0  0  0
  -94.6763   19.1455    0.4803 C   0  0  0  0  0  0  0  0  0  0  0  0
  -94.8071   20.3048   -0.2558 C   0  0  0  0  0  0  0  0  0  0  0  0
  -93.9970   21.3572    0.0290 C   0  0  0  0  0  0  0  0  0  0  0  0
  -93.9422   22.5639   -0.5381 N   0  0  0  0  0  0  0  0  0  0  0  0
  -92.9963   23.2960    0.0570 C   0  0  0  0  0  0  0  0  0  0  0  0
  -92.6044   24.5912   -0.2226 C   0  0  0  0  0  0  0  0  0  0  0  0
  -88.9385   23.6024    4.0515 H   0  0  0  0  0  0  0  0  0  0  0  0
  -91.6892   22.0268   -3.2678 C   0  0  0  0  0  0  0  0  0  0  0  0
  -91.9989   23.3646   -3.7280 N   0  0  0  0  0  0  0  0  0  0  0  0
  -91.5769   23.4804   -4.6538 H   0  0  0  0  0  0  0  0  0  0  0  0
  -92.8419   25.6483   -4.0856 O   0  0  0  0  0  0  0  0  0  0  0  0
  -91.6800   25.7969   -3.3815 C   0  0  0  0  0  0  0  0  0  0  0  0
 33 34  1  0  0  0
 34  1  1  0  0  0
  1  2  1  0  0  0
  2  3  1  0  0  0
  3  4  1  0  0  0
  4  5  1  0  0  0
  5  6  1  0  0  0
  5  7  1  0  0  0
  7 36  1  0  0  0
 36 37  1  0  0  0
  5  8  1  0  0  0
  8  9  1  0  0  0
  9 10  2  0  0  0
 10 11  1  0  0  0
 11 12  2  0  0  0
 12 13  1  0  0  0
 13 14  2  0  0  0
 14 15  1  0  0  0
 15 16  2  0  0  0
 16 17  1  0  0  0
 17 18  1  0  0  0
 18 19  1  0  0  0
 19 20  2  0  0  0
 19 21  1  0  0  0
 21 22  2  0  0  0
 22 23  1  0  0  0
 23 24  2  0  0  0
 24 25  1  0  0  0
 25 26  2  0  0  0
 26 27  1  0  0  0
 27 28  2  0  0  0
 28 29  1  0  0  0
 29 30  1  0  0  0
 30 31  2  0  0  0
  7  1  1  0  0  0
 31  8  1  0  0  0
 29  3  1  0  0  0
 14  9  1  0  0  0
 31 15  1  0  0  0
 21 16  1  0  0  0
 30 22  1  0  0  0
 28 23  1  0  0  0
 34 35  1  0  0  0
 18 32  1  0  0  0
M  END
> <minimizedAffinity>
-3.28389

> <CNNscore>
0.2124501616

> <CNNaffinity>
5.4091215134

> <CNN_VS>
1.1491687298

> <CNNaffinity_variance>
0.1761521995

$$$$
[H]c1c([H])c([H])c2c(c1[H])c1c3c(c4c5c([H])c([H])c([H])c([H])c5n5c4c1n2[C@@]1([H])O[C@]5(C([H])([H])[H])[C@@]([H])(OC([H])([H])[H])[C@@]([H])(N([H])C([H])([H])[H])C1([H])[H])C([H])([H])N([H])C3=O


 37 44  0  0  0  0  0  0  0  0999 V2000
  -89.4137   27.1419   -2.0216 C   0  0  0  0  0  0  0  0  0  0  0  0
  -88.6711   27.2675   -0.7558 C   0  0  0  0  0  0  0  0  0  0  0  0
  -89.1448   28.3519    0.1554 C   0  0  0  0  0  0  0  0  0  0  0  0
  -90.2951   28.9277   -0.0693 O   0  0  0  0  0  0  0  0  0  0  0  0
  -90.8370   29.1256   -1.3183 C   0  0  0  0  0  0  0  0  0  0  0  0
  -92.3192   29.3548   -0.9569 C   0  0  0  0  0  0  0  0  0  0  0  0
  -90.7239   27.8934   -2.0953 C   0  0  0  0  0  0  0  0  0  0  0  0
  -90.2534   30.3290   -1.8871 N   0  0  0  0  0  0  0  0  0  0  0  0
  -90.7683   31.1510   -2.8070 C   0  0  0  0  0  0  0  0  0  0  0  0
  -91.9348   31.1209   -3.5110 C   0  0  0  0  0  0  0  0  0  0  0  0
  -92.2289   32.1208   -4.4260 C   0  0  0  0  0  0  0  0  0  0  0  0
  -91.3826   33.1746   -4.6709 C   0  0  0  0  0  0  0  0  0  0  0  0
  -90.1837   33.2178   -3.9568 C   0  0  0  0  0  0  0  0  0  0  0  0
  -89.9193   32.2125   -3.0561 C   0  0  0  0  0  0  0  0  0  0  0  0
  -88.8180   32.0271   -2.2396 C   0  0  0  0  0  0  0  0  0  0  0  0
  -87.6513   32.7504   -2.0341 C   0  0  0  0  0  0  0  0  0  0  0  0
  -87.2040   34.0187   -2.6860 C   0  0  0  0  0  0  0  0  0  0  0  0
  -85.9383   34.3325   -2.0878 N   0  0  0  0  0  0  0  0  0  0  0  0
  -85.5927   33.3226   -1.1434 C   0  0  0  0  0  0  0  0  0  0  0  0
  -84.5361   33.3669   -0.5086 O   0  0  0  0  0  0  0  0  0  0  0  0
  -86.6788   32.3594   -1.1371 C   0  0  0  0  0  0  0  0  0  0  0  0
  -86.9274   31.1927   -0.4448 C   0  0  0  0  0  0  0  0  0  0  0  0
  -86.2216   30.4795    0.5009 C   0  0  0  0  0  0  0  0  0  0  0  0
  -85.0182   30.6595    1.1217 C   0  0  0  0  0  0  0  0  0  0  0  0
  -84.5987   29.7142    2.0571 C   0  0  0  0  0  0  0  0  0  0  0  0
  -85.3476   28.6044    2.3824 C   0  0  0  0  0  0  0  0  0  0  0  0
  -86.5624   28.4246    1.7540 C   0  0  0  0  0  0  0  0  0  0  0  0
  -86.9718   29.3449    0.8428 C   0  0  0  0  0  0  0  0  0  0  0  0
  -88.0929   29.3832    0.1200 N   0  0  0  0  0  0  0  0  0  0  0  0
  -88.0910   30.4735   -0.6521 C   0  0  0  0  0  0  0  0  0  0  0  0
  -89.0488   30.8923   -1.5556 C   0  0  0  0  0  0  0  0  0  0  0  0
  -85.3592   35.1912   -2.3244 H   0  0  0  0  0  0  0  0  0  0  0  0
  -87.2783   27.8380   -2.6731 C   0  0  0  0  0  0  0  0  0  0  0  0
  -88.5988   27.5286   -3.1810 N   0  0  0  0  0  0  0  0  0  0  0  0
  -88.4990   26.7763   -3.8686 H   0  0  0  0  0  0  0  0  0  0  0  0
  -91.0081   27.9485   -3.4509 O   0  0  0  0  0  0  0  0  0  0  0  0
  -92.0729   27.1979   -3.8641 C   0  0  0  0  0  0  0  0  0  0  0  0
 33 34  1  0  0  0
 34  1  1  0  0  0
  1  2  1  0  0  0
  2  3  1  0  0  0
  3  4  1  0  0  0
  4  5  1  0  0  0
  5  6  1  0  0  0
  5  7  1  0  0  0
  7 36  1  0  0  0
 36 37  1  0  0  0
  5  8  1  0  0  0
  8  9  1  0  0  0
  9 10  2  0  0  0
 10 11  1  0  0  0
 11 12  2  0  0  0
 12 13  1  0  0  0
 13 14  2  0  0  0
 14 15  1  0  0  0
 15 16  2  0  0  0
 16 17  1  0  0  0
 17 18  1  0  0  0
 18 19  1  0  0  0
 19 20  2  0  0  0
 19 21  1  0  0  0
 21 22  2  0  0  0
 22 23  1  0  0  0
 23 24  2  0  0  0
 24 25  1  0  0  0
 25 26  2  0  0  0
 26 27  1  0  0  0
 27 28  2  0  0  0
 28 29  1  0  0  0
 29 30  1  0  0  0
 30 31  2  0  0  0
  7  1  1  0  0  0
 31  8  1  0  0  0
 29  3  1  0  0  0
 14  9  1  0  0  0
 31 15  1  0  0  0
 21 16  1  0  0  0
 30 22  1  0  0  0
 28 23  1  0  0  0
 34 35  1  0  0  0
 18 32  1  0  0  0
M  END
> <minimizedAffinity>
-9.68581

> <CNNscore>
0.1722070724

> <CNNaffinity>
6.3327403069

> <CNN_VS>
1.0905426741

> <CNNaffinity_variance>
0.1618671715

$$$$
[H]c1c([H])c([H])c2c(c1[H])c1c3c(c4c5c([H])c([H])c([H])c([H])c5n5c4c1n2[C@@]1([H])O[C@]5(C([H])([H])[H])[C@@]([H])(OC([H])([H])[H])[C@@]([H])(N([H])C([H])([H])[H])C1([H])[H])C([H])([H])N([H])C3=O


 37 44  0  0  0  0  0  0  0  0999 V2000
  -90.3219   23.8877   -0.4850 C   0  0  0  0  0  0  0  0  0  0  0  0
  -90.1460   25.2516    0.0427 C   0  0  0  0  0  0  0  0  0  0  0  0
  -91.4031   26.0444    0.1901 C   0  0  0  0  0  0  0  0  0  0  0  0
  -92.5592   25.4425    0.1104 O   0  0  0  0  0  0  0  0  0  0  0  0
  -92.8137   24.3445   -0.6787 C   0  0  0  0  0  0  0  0  0  0  0  0
  -94.0959   23.8022   -0.0138 C   0  0  0  0  0  0  0  0  0  0  0  0
  -91.7415   23.3670   -0.5074 C   0  0  0  0  0  0  0  0  0  0  0  0
  -93.0886   24.8035   -2.0300 N   0  0  0  0  0  0  0  0  0  0  0  0
  -93.8129   24.2068   -2.9821 C   0  0  0  0  0  0  0  0  0  0  0  0
  -94.4722   23.0147   -3.0185 C   0  0  0  0  0  0  0  0  0  0  0  0
  -95.1603   22.6272   -4.1587 C   0  0  0  0  0  0  0  0  0  0  0  0
  -95.2166   23.4030   -5.2908 C   0  0  0  0  0  0  0  0  0  0  0  0
  -94.5452   24.6269   -5.2675 C   0  0  0  0  0  0  0  0  0  0  0  0
  -93.8714   24.9844   -4.1229 C   0  0  0  0  0  0  0  0  0  0  0  0
  -93.1373   26.1253   -3.8517 C   0  0  0  0  0  0  0  0  0  0  0  0
  -92.8388   27.2639   -4.5873 C   0  0  0  0  0  0  0  0  0  0  0  0
  -93.2366   27.6113   -5.9853 C   0  0  0  0  0  0  0  0  0  0  0  0
  -92.6752   28.9082   -6.2335 N   0  0  0  0  0  0  0  0  0  0  0  0
  -91.9501   29.3423   -5.0859 C   0  0  0  0  0  0  0  0  0  0  0  0
  -91.3637   30.4273   -5.0654 O   0  0  0  0  0  0  0  0  0  0  0  0
  -92.0747   28.2974   -4.0860 C   0  0  0  0  0  0  0  0  0  0  0  0
  -91.6126   28.1386   -2.7961 C   0  0  0  0  0  0  0  0  0  0  0  0
  -90.8315   28.9122   -1.9640 C   0  0  0  0  0  0  0  0  0  0  0  0
  -90.2292   30.1316   -2.0911 C   0  0  0  0  0  0  0  0  0  0  0  0
  -89.4931   30.6306   -1.0171 C   0  0  0  0  0  0  0  0  0  0  0  0
  -89.3471   29.9449    0.1690 C   0  0  0  0  0  0  0  0  0  0  0  0
  -89.9560   28.7135    0.2950 C   0  0  0  0  0  0  0  0  0  0  0  0
  -90.6733   28.2267   -0.7507 C   0  0  0  0  0  0  0  0  0  0  0  0
  -91.3424   27.0773   -0.8591 N   0  0  0  0  0  0  0  0  0  0  0  0
  -91.9113   27.0023   -2.0655 C   0  0  0  0  0  0  0  0  0  0  0  0
  -92.6823   25.9846   -2.5939 C   0  0  0  0  0  0  0  0  0  0  0  0
  -92.7917   29.4489   -7.1404 H   0  0  0  0  0  0  0  0  0  0  0  0
  -89.0153   24.9527   -2.1060 C   0  0  0  0  0  0  0  0  0  0  0  0
  -89.7592   23.7403   -1.8338 N   0  0  0  0  0  0  0  0  0  0  0  0
  -89.1095   22.9527   -1.9123 H   0  0  0  0  0  0  0  0  0  0  0  0
  -91.6946   22.2905   -1.3794 O   0  0  0  0  0  0  0  0  0  0  0  0
  -92.2637   21.1342   -0.9246 C   0  0  0  0  0  0  0  0  0  0  0  0
 33 34  1  0  0  0
 34  1  1  0  0  0
  1  2  1  0  0  0
  2  3  1  0  0  0
  3  4  1  0  0  0
  4  5  1  0  0  0
  5  6  1  0  0  0
  5  7  1  0  0  0
  7 36  1  0  0  0
 36 37  1  0  0  0
  5  8  1  0  0  0
  8  9  1  0  0  0
  9 10  2  0  0  0
 10 11  1  0  0  0
 11 12  2  0  0  0
 12 13  1  0  0  0
 13 14  2  0  0  0
 14 15  1  0  0  0
 15 16  2  0  0  0
 16 17  1  0  0  0
 17 18  1  0  0  0
 18 19  1  0  0  0
 19 20  2  0  0  0
 19 21  1  0  0  0
 21 22  2  0  0  0
 22 23  1  0  0  0
 23 24  2  0  0  0
 24 25  1  0  0  0
 25 26  2  0  0  0
 26 27  1  0  0  0
 27 28  2  0  0  0
 28 29  1  0  0  0
 29 30  1  0  0  0
 30 31  2  0  0  0
  7  1  1  0  0  0
 31  8  1  0  0  0
 29  3  1  0  0  0
 14  9  1  0  0  0
 31 15  1  0  0  0
 21 16  1  0  0  0
 30 22  1  0  0  0
 28 23  1  0  0  0
 34 35  1  0  0  0
 18 32  1  0  0  0
M  END
> <minimizedAffinity>
-6.12538

> <CNNscore>
0.0811601579

> <CNNaffinity>
5.5181584358

> <CNN_VS>
0.4478546083

> <CNNaffinity_variance>
0.0680447817

$$$$
[H]c1c([H])c([H])c2c(c1[H])c1c3c(c4c5c([H])c([H])c([H])c([H])c5n5c4c1n2[C@@]1([H])O[C@]5(C([H])([H])[H])[C@@]([H])(OC([H])([H])[H])[C@@]([H])(N([H])C([H])([H])[H])C1([H])[H])C([H])([H])N([H])C3=O


 37 44  0  0  0  0  0  0  0  0999 V2000
  -87.4908   26.2538   -0.1466 C   0  0  0  0  0  0  0  0  0  0  0  0
  -86.8517   27.4528    0.4220 C   0  0  0  0  0  0  0  0  0  0  0  0
  -87.7633   28.3620    1.1791 C   0  0  0  0  0  0  0  0  0  0  0  0
  -88.9540   27.9466    1.5181 O   0  0  0  0  0  0  0  0  0  0  0  0
  -89.7123   27.0673    0.7800 C   0  0  0  0  0  0  0  0  0  0  0  0
  -90.7131   26.5815    1.8489 C   0  0  0  0  0  0  0  0  0  0  0  0
  -88.8793   25.9412    0.3643 C   0  0  0  0  0  0  0  0  0  0  0  0
  -90.3951   27.8132   -0.2639 N   0  0  0  0  0  0  0  0  0  0  0  0
  -91.5380   27.5154   -0.8901 C   0  0  0  0  0  0  0  0  0  0  0  0
  -92.3846   26.4518   -0.7930 C   0  0  0  0  0  0  0  0  0  0  0  0
  -93.5264   26.3892   -1.5778 C   0  0  0  0  0  0  0  0  0  0  0  0
  -93.8633   27.3711   -2.4772 C   0  0  0  0  0  0  0  0  0  0  0  0
  -93.0045   28.4665   -2.5873 C   0  0  0  0  0  0  0  0  0  0  0  0
  -91.8799   28.5012   -1.7961 C   0  0  0  0  0  0  0  0  0  0  0  0
  -90.8847   29.4591   -1.7197 C   0  0  0  0  0  0  0  0  0  0  0  0
  -90.6748   30.6692   -2.3665 C   0  0  0  0  0  0  0  0  0  0  0  0
  -91.5087   31.3322   -3.4146 C   0  0  0  0  0  0  0  0  0  0  0  0
  -90.8403   32.5660   -3.7137 N   0  0  0  0  0  0  0  0  0  0  0  0
  -89.6529   32.6677   -2.9321 C   0  0  0  0  0  0  0  0  0  0  0  0
  -88.8996   33.6399   -3.0261 O   0  0  0  0  0  0  0  0  0  0  0  0
  -89.5844   31.4740   -2.1089 C   0  0  0  0  0  0  0  0  0  0  0  0
  -88.6971   31.0068   -1.1618 C   0  0  0  0  0  0  0  0  0  0  0  0
  -87.5144   31.4924   -0.6456 C   0  0  0  0  0  0  0  0  0  0  0  0
  -86.7775   32.6219   -0.8625 C   0  0  0  0  0  0  0  0  0  0  0  0
  -85.5959   32.7995   -0.1437 C   0  0  0  0  0  0  0  0  0  0  0  0
  -85.1392   31.8826    0.7777 C   0  0  0  0  0  0  0  0  0  0  0  0
  -85.8849   30.7425    0.9950 C   0  0  0  0  0  0  0  0  0  0  0  0
  -87.0360   30.5688    0.2951 C   0  0  0  0  0  0  0  0  0  0  0  0
  -87.9109   29.5621    0.3369 N   0  0  0  0  0  0  0  0  0  0  0  0
  -88.9086   29.8000   -0.5191 C   0  0  0  0  0  0  0  0  0  0  0  0
  -90.0127   29.0167   -0.7963 C   0  0  0  0  0  0  0  0  0  0  0  0
  -91.1905   33.2837   -4.4143 H   0  0  0  0  0  0  0  0  0  0  0  0
  -86.8935   27.5301   -2.0130 C   0  0  0  0  0  0  0  0  0  0  0  0
  -87.5425   26.2984   -1.6139 N   0  0  0  0  0  0  0  0  0  0  0  0
  -87.0386   25.5242   -2.0557 H   0  0  0  0  0  0  0  0  0  0  0  0
  -89.3951   25.0588   -0.5721 O   0  0  0  0  0  0  0  0  0  0  0  0
  -89.6718   23.8018   -0.1124 C   0  0  0  0  0  0  0  0  0  0  0  0
 33 34  1  0  0  0
 34  1  1  0  0  0
  1  2  1  0  0  0
  2  3  1  0  0  0
  3  4  1  0  0  0
  4  5  1  0  0  0
  5  6  1  0  0  0
  5  7  1  0  0  0
  7 36  1  0  0  0
 36 37  1  0  0  0
  5  8  1  0  0  0
  8  9  1  0  0  0
  9 10  2  0  0  0
 10 11  1  0  0  0
 11 12  2  0  0  0
 12 13  1  0  0  0
 13 14  2  0  0  0
 14 15  1  0  0  0
 15 16  2  0  0  0
 16 17  1  0  0  0
 17 18  1  0  0  0
 18 19  1  0  0  0
 19 20  2  0  0  0
 19 21  1  0  0  0
 21 22  2  0  0  0
 22 23  1  0  0  0
 23 24  2  0  0  0
 24 25  1  0  0  0
 25 26  2  0  0  0
 26 27  1  0  0  0
 27 28  2  0  0  0
 28 29  1  0  0  0
 29 30  1  0  0  0
 30 31  2  0  0  0
  7  1  1  0  0  0
 31  8  1  0  0  0
 29  3  1  0  0  0
 14  9  1  0  0  0
 31 15  1  0  0  0
 21 16  1  0  0  0
 30 22  1  0  0  0
 28 23  1  0  0  0
 34 35  1  0  0  0
 18 32  1  0  0  0
M  END
> <minimizedAffinity>
-8.96314

> <CNNscore>
0.0788697377

> <CNNaffinity>
5.9812517166

> <CNN_VS>
0.4717397392

> <CNNaffinity_variance>
0.3570260406

$$$$
[H]c1c([H])c([H])c2c(c1[H])c1c3c(c4c5c([H])c([H])c([H])c([H])c5n5c4c1n2[C@@]1([H])O[C@]5(C([H])([H])[H])[C@@]([H])(OC([H])([H])[H])[C@@]([H])(N([H])C([H])([H])[H])C1([H])[H])C([H])([H])N([H])C3=O


 37 44  0  0  0  0  0  0  0  0999 V2000
  -89.2286   33.0555   -1.9979 C   0  0  0  0  0  0  0  0  0  0  0  0
  -87.7899   33.1379   -1.6935 C   0  0  0  0  0  0  0  0  0  0  0  0
  -86.9353   32.1204   -2.3756 C   0  0  0  0  0  0  0  0  0  0  0  0
  -87.4277   31.4199   -3.3616 O   0  0  0  0  0  0  0  0  0  0  0  0
  -88.7454   31.0377   -3.4644 C   0  0  0  0  0  0  0  0  0  0  0  0
  -88.8352   30.7136   -4.9700 C   0  0  0  0  0  0  0  0  0  0  0  0
  -89.6051   32.1828   -3.1742 C   0  0  0  0  0  0  0  0  0  0  0  0
  -88.9397   29.8384   -2.6667 N   0  0  0  0  0  0  0  0  0  0  0  0
  -89.8562   28.8768   -2.8163 C   0  0  0  0  0  0  0  0  0  0  0  0
  -90.8852   28.7222   -3.6963 C   0  0  0  0  0  0  0  0  0  0  0  0
  -91.7051   27.6056   -3.6291 C   0  0  0  0  0  0  0  0  0  0  0  0
  -91.5328   26.6139   -2.6945 C   0  0  0  0  0  0  0  0  0  0  0  0
  -90.4824   26.7597   -1.7862 C   0  0  0  0  0  0  0  0  0  0  0  0
  -89.6861   27.8774   -1.8773 C   0  0  0  0  0  0  0  0  0  0  0  0
  -88.6000   28.2516   -1.1063 C   0  0  0  0  0  0  0  0  0  0  0  0
  -87.9481   27.6658   -0.0300 C   0  0  0  0  0  0  0  0  0  0  0  0
  -88.2543   26.3806    0.6687 C   0  0  0  0  0  0  0  0  0  0  0  0
  -87.2564   26.2521    1.6915 N   0  0  0  0  0  0  0  0  0  0  0  0
  -86.3943   27.3866    1.6630 C   0  0  0  0  0  0  0  0  0  0  0  0
  -85.4627   27.5095    2.4620 O   0  0  0  0  0  0  0  0  0  0  0  0
  -86.8537   28.2404    0.5826 C   0  0  0  0  0  0  0  0  0  0  0  0
  -86.4342   29.4479    0.0643 C   0  0  0  0  0  0  0  0  0  0  0  0
  -85.4195   30.3220    0.3919 C   0  0  0  0  0  0  0  0  0  0  0  0
  -84.4375   30.3227    1.3414 C   0  0  0  0  0  0  0  0  0  0  0  0
  -83.5523   31.3991    1.3892 C   0  0  0  0  0  0  0  0  0  0  0  0
  -83.6261   32.4640    0.5180 C   0  0  0  0  0  0  0  0  0  0  0  0
  -84.6188   32.4613   -0.4399 C   0  0  0  0  0  0  0  0  0  0  0  0
  -85.4815   31.4131   -0.4871 C   0  0  0  0  0  0  0  0  0  0  0  0
  -86.5049   31.1929   -1.3146 N   0  0  0  0  0  0  0  0  0  0  0  0
  -87.0863   30.0297   -1.0083 C   0  0  0  0  0  0  0  0  0  0  0  0
  -88.1786   29.4282   -1.6034 C   0  0  0  0  0  0  0  0  0  0  0  0
  -87.1851   25.4298    2.3603 H   0  0  0  0  0  0  0  0  0  0  0  0
  -89.0821   32.4686    0.2611 C   0  0  0  0  0  0  0  0  0  0  0  0
  -90.0153   32.6214   -0.8359 N   0  0  0  0  0  0  0  0  0  0  0  0
  -90.7201   33.3075   -0.5511 H   0  0  0  0  0  0  0  0  0  0  0  0
  -90.9620   31.9541   -3.0067 O   0  0  0  0  0  0  0  0  0  0  0  0
  -91.7584   32.3182   -4.0561 C   0  0  0  0  0  0  0  0  0  0  0  0
 33 34  1  0  0  0
 34  1  1  0  0  0
  1  2  1  0  0  0
  2  3  1  0  0  0
  3  4  1  0  0  0
  4  5  1  0  0  0
  5  6  1  0  0  0
  5  7  1  0  0  0
  7 36  1  0  0  0
 36 37  1  0  0  0
  5  8  1  0  0  0
  8  9  1  0  0  0
  9 10  2  0  0  0
 10 11  1  0  0  0
 11 12  2  0  0  0
 12 13  1  0  0  0
 13 14  2  0  0  0
 14 15  1  0  0  0
 15 16  2  0  0  0
 16 17  1  0  0  0
 17 18  1  0  0  0
 18 19  1  0  0  0
 19 20  2  0  0  0
 19 21  1  0  0  0
 21 22  2  0  0  0
 22 23  1  0  0  0
 23 24  2  0  0  0
 24 25  1  0  0  0
 25 26  2  0  0  0
 26 27  1  0  0  0
 27 28  2  0  0  0
 28 29  1  0  0  0
 29 30  1  0  0  0
 30 31  2  0  0  0
  7  1  1  0  0  0
 31  8  1  0  0  0
 29  3  1  0  0  0
 14  9  1  0  0  0
 31 15  1  0  0  0
 21 16  1  0  0  0
 30 22  1  0  0  0
 28 23  1  0  0  0
 34 35  1  0  0  0
 18 32  1  0  0  0
M  END
> <minimizedAffinity>
-7.71797

> <CNNscore>
0.0640811324

> <CNNaffinity>
5.8786001205

> <CNN_VS>
0.3767073452

> <CNNaffinity_variance>
0.6747230291

$$$$
[H]c1nc(N([H])c2c([H])c([H])c(N3C([H])([H])C([H])([H])OC([H])([H])C3([H])[H])c([H])c2[H])nc(-c2c(F)c([H])c(C(=O)N([H])[H])c([H])c2F)c1[H]


 33 36  0  0  0  0  0  0  0  0999 V2000
  -85.4497   29.7887    0.6976 C   0  0  0  0  0  0  0  0  0  0  0  0
  -84.1376   29.6554    1.0908 C   0  0  0  0  0  0  0  0  0  0  0  0
  -83.3534   30.7816    0.9773 C   0  0  0  0  0  0  0  0  0  0  0  0
  -83.8482   31.9307    0.5113 N   0  0  0  0  0  0  0  0  0  0  0  0
  -85.1189   32.0857    0.1229 C   0  0  0  0  0  0  0  0  0  0  0  0
  -85.8850   30.9648    0.2399 N   0  0  0  0  0  0  0  0  0  0  0  0
  -88.0743   26.5189    0.8821 C   0  0  0  0  0  0  0  0  0  0  0  0
  -87.6651   26.9976   -0.3392 C   0  0  0  0  0  0  0  0  0  0  0  0
  -86.8126   28.0595   -0.4034 C   0  0  0  0  0  0  0  0  0  0  0  0
  -86.3859   28.5609   -1.5921 F   0  0  0  0  0  0  0  0  0  0  0  0
  -86.3639   28.6501    0.7796 C   0  0  0  0  0  0  0  0  0  0  0  0
  -86.7578   28.1908    2.0112 C   0  0  0  0  0  0  0  0  0  0  0  0
  -86.2888   28.8049    3.1197 F   0  0  0  0  0  0  0  0  0  0  0  0
  -87.6168   27.1200    2.0457 C   0  0  0  0  0  0  0  0  0  0  0  0
  -88.8571   24.2998    0.0160 N   0  0  0  0  0  0  0  0  0  0  0  0
  -88.9804   25.3892    0.9134 C   0  0  0  0  0  0  0  0  0  0  0  0
  -89.9068   25.3642    1.7569 O   0  0  0  0  0  0  0  0  0  0  0  0
  -88.4979   24.4521   -0.9680 H   0  0  0  0  0  0  0  0  0  0  0  0
  -89.1137   23.3182    0.2912 H   0  0  0  0  0  0  0  0  0  0  0  0
  -85.7033   33.2660   -0.3771 N   0  0  0  0  0  0  0  0  0  0  0  0
  -85.2399   34.1628   -0.0597 H   0  0  0  0  0  0  0  0  0  0  0  0
  -86.8063   33.3920   -1.2382 C   0  0  0  0  0  0  0  0  0  0  0  0
  -86.5921   34.0034   -2.4816 C   0  0  0  0  0  0  0  0  0  0  0  0
  -87.6098   34.1598   -3.3979 C   0  0  0  0  0  0  0  0  0  0  0  0
  -88.8866   33.7270   -3.1449 C   0  0  0  0  0  0  0  0  0  0  0  0
  -89.1271   33.1248   -1.9377 C   0  0  0  0  0  0  0  0  0  0  0  0
  -88.0894   32.9643   -1.0020 C   0  0  0  0  0  0  0  0  0  0  0  0
  -89.9620   33.8891   -4.1016 N   0  0  0  0  0  0  0  0  0  0  0  0
  -90.1441   35.1394   -4.7868 C   0  0  0  0  0  0  0  0  0  0  0  0
  -91.0347   35.1012   -5.9677 C   0  0  0  0  0  0  0  0  0  0  0  0
  -91.0798   33.8094   -6.4809 O   0  0  0  0  0  0  0  0  0  0  0  0
  -91.7095   32.9977   -5.5061 C   0  0  0  0  0  0  0  0  0  0  0  0
  -90.8217   32.7750   -4.3285 C   0  0  0  0  0  0  0  0  0  0  0  0
 15 16  1  0  0  0
 16 17  2  0  0  0
 16  7  1  0  0  0
  7  8  2  0  0  0
  8  9  1  0  0  0
  9 10  1  0  0  0
  9 11  2  0  0  0
 11 12  1  0  0  0
 12 13  1  0  0  0
 12 14  2  0  0  0
 11  1  1  0  0  0
  1  2  2  0  0  0
  2  3  1  0  0  0
  3  4  2  0  0  0
  4  5  1  0  0  0
  5 20  1  0  0  0
 20 22  1  0  0  0
 22 23  2  0  0  0
 23 24  1  0  0  0
 24 25  2  0  0  0
 25 26  1  0  0  0
 26 27  2  0  0  0
 25 28  1  0  0  0
 28 29  1  0  0  0
 29 30  1  0  0  0
 30 31  1  0  0  0
 31 32  1  0  0  0
 32 33  1  0  0  0
  5  6  2  0  0  0
 14  7  1  0  0  0
  6  1  1  0  0  0
 27 22  1  0  0  0
 33 28  1  0  0  0
 15 18  1  0  0  0
 15 19  1  0  0  0
 20 21  1  0  0  0
M  END
> <minimizedAffinity>
-8.80478

> <CNNscore>
0.3930180967

> <CNNaffinity>
6.7483472824

> <CNN_VS>
2.6522226334

> <CNNaffinity_variance>
0.1399829090

$$$$
[H]c1nc(N([H])c2c([H])c([H])c(N3C([H])([H])C([H])([H])OC([H])([H])C3([H])[H])c([H])c2[H])nc(-c2c(F)c([H])c(C(=O)N([H])[H])c([H])c2F)c1[H]


 33 36  0  0  0  0  0  0  0  0999 V2000
  -85.4552   29.7517    0.7111 C   0  0  0  0  0  0  0  0  0  0  0  0
  -84.1662   29.6142    1.1730 C   0  0  0  0  0  0  0  0  0  0  0  0
  -83.3752   30.7394    1.1067 C   0  0  0  0  0  0  0  0  0  0  0  0
  -83.8426   31.8916    0.6204 N   0  0  0  0  0  0  0  0  0  0  0  0
  -85.0906   32.0507    0.1656 C   0  0  0  0  0  0  0  0  0  0  0  0
  -85.8636   30.9307    0.2364 N   0  0  0  0  0  0  0  0  0  0  0  0
  -88.0926   26.4897    0.8419 C   0  0  0  0  0  0  0  0  0  0  0  0
  -87.6620   27.0666    2.0123 C   0  0  0  0  0  0  0  0  0  0  0  0
  -86.8053   28.1264    1.9741 C   0  0  0  0  0  0  0  0  0  0  0  0
  -86.3577   28.7231    3.1098 F   0  0  0  0  0  0  0  0  0  0  0  0
  -86.3743   28.6145    0.7389 C   0  0  0  0  0  0  0  0  0  0  0  0
  -86.7897   28.0559   -0.4436 C   0  0  0  0  0  0  0  0  0  0  0  0
  -86.3369   28.5734   -1.6069 F   0  0  0  0  0  0  0  0  0  0  0  0
  -87.6524   26.9898   -0.3750 C   0  0  0  0  0  0  0  0  0  0  0  0
  -88.8813   24.2383    0.0695 N   0  0  0  0  0  0  0  0  0  0  0  0
  -89.0027   25.3653    0.9194 C   0  0  0  0  0  0  0  0  0  0  0  0
  -89.9308   25.3794    1.7612 O   0  0  0  0  0  0  0  0  0  0  0  0
  -88.5197   24.3472   -0.9192 H   0  0  0  0  0  0  0  0  0  0  0  0
  -89.1418   23.2702    0.3858 H   0  0  0  0  0  0  0  0  0  0  0  0
  -85.6456   33.2343   -0.3593 N   0  0  0  0  0  0  0  0  0  0  0  0
  -85.1526   34.1251   -0.0703 H   0  0  0  0  0  0  0  0  0  0  0  0
  -86.7538   33.3705   -1.2122 C   0  0  0  0  0  0  0  0  0  0  0  0
  -86.5391   33.9610   -2.4655 C   0  0  0  0  0  0  0  0  0  0  0  0
  -87.5619   34.1251   -3.3747 C   0  0  0  0  0  0  0  0  0  0  0  0
  -88.8446   33.7208   -3.1046 C   0  0  0  0  0  0  0  0  0  0  0  0
  -89.0857   33.1396   -1.8872 C   0  0  0  0  0  0  0  0  0  0  0  0
  -88.0427   32.9713   -0.9587 C   0  0  0  0  0  0  0  0  0  0  0  0
  -89.9254   33.8912   -4.0537 N   0  0  0  0  0  0  0  0  0  0  0  0
  -90.1327   35.1578   -4.7006 C   0  0  0  0  0  0  0  0  0  0  0  0
  -91.0256   35.1383   -5.8803 C   0  0  0  0  0  0  0  0  0  0  0  0
  -91.0478   33.8618   -6.4320 O   0  0  0  0  0  0  0  0  0  0  0  0
  -91.6595   33.0095   -5.4807 C   0  0  0  0  0  0  0  0  0  0  0  0
  -90.7646   32.7684   -4.3121 C   0  0  0  0  0  0  0  0  0  0  0  0
 15 16  1  0  0  0
 16 17  2  0  0  0
 16  7  1  0  0  0
  7  8  2  0  0  0
  8  9  1  0  0  0
  9 10  1  0  0  0
  9 11  2  0  0  0
 11 12  1  0  0  0
 12 13  1  0  0  0
 12 14  2  0  0  0
 11  1  1  0  0  0
  1  2  2  0  0  0
  2  3  1  0  0  0
  3  4  2  0  0  0
  4  5  1  0  0  0
  5 20  1  0  0  0
 20 22  1  0  0  0
 22 23  2  0  0  0
 23 24  1  0  0  0
 24 25  2  0  0  0
 25 26  1  0  0  0
 26 27  2  0  0  0
 25 28  1  0  0  0
 28 29  1  0  0  0
 29 30  1  0  0  0
 30 31  1  0  0  0
 31 32  1  0  0  0
 32 33  1  0  0  0
  5  6  2  0  0  0
 14  7  1  0  0  0
  6  1  1  0  0  0
 27 22  1  0  0  0
 33 28  1  0  0  0
 15 18  1  0  0  0
 15 19  1  0  0  0
 20 21  1  0  0  0
M  END
> <minimizedAffinity>
-8.78241

> <CNNscore>
0.3864364624

> <CNNaffinity>
6.7423639297

> <CNN_VS>
2.6054952145

> <CNNaffinity_variance>
0.1434383690

$$$$
[H]c1nc(N([H])c2c([H])c([H])c(N3C([H])([H])C([H])([H])OC([H])([H])C3([H])[H])c([H])c2[H])nc(-c2c(F)c([H])c(C(=O)N([H])[H])c([H])c2F)c1[H]


 33 36  0  0  0  0  0  0  0  0999 V2000
  -86.9654   31.6105   -0.7857 C   0  0  0  0  0  0  0  0  0  0  0  0
  -85.9127   31.7159    0.0943 C   0  0  0  0  0  0  0  0  0  0  0  0
  -84.9621   32.6651   -0.2086 C   0  0  0  0  0  0  0  0  0  0  0  0
  -85.0663   33.4327   -1.2959 N   0  0  0  0  0  0  0  0  0  0  0  0
  -86.0790   33.3496   -2.1662 C   0  0  0  0  0  0  0  0  0  0  0  0
  -87.0131   32.4072   -1.8558 N   0  0  0  0  0  0  0  0  0  0  0  0
  -89.9784   28.7652   -0.1222 C   0  0  0  0  0  0  0  0  0  0  0  0
  -88.6922   28.3515   -0.3726 C   0  0  0  0  0  0  0  0  0  0  0  0
  -87.7106   29.2726   -0.5886 C   0  0  0  0  0  0  0  0  0  0  0  0
  -86.4275   28.9023   -0.8393 F   0  0  0  0  0  0  0  0  0  0  0  0
  -88.0271   30.6321   -0.5523 C   0  0  0  0  0  0  0  0  0  0  0  0
  -89.3035   31.0704   -0.3043 C   0  0  0  0  0  0  0  0  0  0  0  0
  -89.5466   32.3996   -0.2822 F   0  0  0  0  0  0  0  0  0  0  0  0
  -90.2718   30.1207   -0.0904 C   0  0  0  0  0  0  0  0  0  0  0  0
  -92.1055   27.6033   -0.7646 N   0  0  0  0  0  0  0  0  0  0  0  0
  -90.9964   27.7595    0.1030 C   0  0  0  0  0  0  0  0  0  0  0  0
  -90.9033   26.9980    1.0938 O   0  0  0  0  0  0  0  0  0  0  0  0
  -92.5233   28.4408   -1.2589 H   0  0  0  0  0  0  0  0  0  0  0  0
  -92.5454   26.6657   -0.9449 H   0  0  0  0  0  0  0  0  0  0  0  0
  -86.2489   34.1258   -3.3294 N   0  0  0  0  0  0  0  0  0  0  0  0
  -85.3779   34.2436   -3.9187 H   0  0  0  0  0  0  0  0  0  0  0  0
  -87.4196   34.7468   -3.7961 C   0  0  0  0  0  0  0  0  0  0  0  0
  -88.0867   34.1471   -4.8735 C   0  0  0  0  0  0  0  0  0  0  0  0
  -89.2495   34.6756   -5.3916 C   0  0  0  0  0  0  0  0  0  0  0  0
  -89.8177   35.8158   -4.8830 C   0  0  0  0  0  0  0  0  0  0  0  0
  -89.1887   36.4249   -3.8288 C   0  0  0  0  0  0  0  0  0  0  0  0
  -88.0023   35.8863   -3.2991 C   0  0  0  0  0  0  0  0  0  0  0  0
  -91.0384   36.3788   -5.4227 N   0  0  0  0  0  0  0  0  0  0  0  0
  -91.2731   36.3825   -6.8407 C   0  0  0  0  0  0  0  0  0  0  0  0
  -92.6643   36.6605   -7.2610 C   0  0  0  0  0  0  0  0  0  0  0  0
  -93.5405   36.3339   -6.2315 O   0  0  0  0  0  0  0  0  0  0  0  0
  -93.2811   37.2303   -5.1662 C   0  0  0  0  0  0  0  0  0  0  0  0
  -91.9807   36.9244   -4.5030 C   0  0  0  0  0  0  0  0  0  0  0  0
 15 16  1  0  0  0
 16 17  2  0  0  0
 16  7  1  0  0  0
  7  8  2  0  0  0
  8  9  1  0  0  0
  9 10  1  0  0  0
  9 11  2  0  0  0
 11 12  1  0  0  0
 12 13  1  0  0  0
 12 14  2  0  0  0
 11  1  1  0  0  0
  1  2  2  0  0  0
  2  3  1  0  0  0
  3  4  2  0  0  0
  4  5  1  0  0  0
  5 20  1  0  0  0
 20 22  1  0  0  0
 22 23  2  0  0  0
 23 24  1  0  0  0
 24 25  2  0  0  0
 25 26  1  0  0  0
 26 27  2  0  0  0
 25 28  1  0  0  0
 28 29  1  0  0  0
 29 30  1  0  0  0
 30 31  1  0  0  0
 31 32  1  0  0  0
 32 33  1  0  0  0
  5  6  2  0  0  0
 14  7  1  0  0  0
  6  1  1  0  0  0
 27 22  1  0  0  0
 33 28  1  0  0  0
 15 18  1  0  0  0
 15 19  1  0  0  0
 20 21  1  0  0  0
M  END
> <minimizedAffinity>
-7.74468

> <CNNscore>
0.3340390027

> <CNNaffinity>
6.2947182655

> <CNN_VS>
2.1026813984

> <CNNaffinity_variance>
0.0619863272

$$$$
[H]c1nc(N([H])c2c([H])c([H])c(N3C([H])([H])C([H])([H])OC([H])([H])C3([H])[H])c([H])c2[H])nc(-c2c(F)c([H])c(C(=O)N([H])[H])c([H])c2F)c1[H]


 33 36  0  0  0  0  0  0  0  0999 V2000
  -86.4134   31.2556   -0.2967 C   0  0  0  0  0  0  0  0  0  0  0  0
  -85.4495   31.6684    0.5947 C   0  0  0  0  0  0  0  0  0  0  0  0
  -84.8457   32.8749    0.3190 C   0  0  0  0  0  0  0  0  0  0  0  0
  -85.1840   33.5939   -0.7538 N   0  0  0  0  0  0  0  0  0  0  0  0
  -86.1169   33.2148   -1.6346 C   0  0  0  0  0  0  0  0  0  0  0  0
  -86.7071   32.0197   -1.3513 N   0  0  0  0  0  0  0  0  0  0  0  0
  -88.3768   27.5933    0.2915 C   0  0  0  0  0  0  0  0  0  0  0  0
  -87.0046   27.6300    0.2312 C   0  0  0  0  0  0  0  0  0  0  0  0
  -86.3630   28.8177    0.0402 C   0  0  0  0  0  0  0  0  0  0  0  0
  -85.0079   28.8940   -0.0249 F   0  0  0  0  0  0  0  0  0  0  0  0
  -87.1132   29.9879   -0.0922 C   0  0  0  0  0  0  0  0  0  0  0  0
  -88.4842   29.9775   -0.0356 C   0  0  0  0  0  0  0  0  0  0  0  0
  -89.1539   31.1434   -0.1708 F   0  0  0  0  0  0  0  0  0  0  0  0
  -89.1036   28.7674    0.1576 C   0  0  0  0  0  0  0  0  0  0  0  0
  -88.4189   25.0926    0.1132 N   0  0  0  0  0  0  0  0  0  0  0  0
  -89.0257   26.3144    0.4954 C   0  0  0  0  0  0  0  0  0  0  0  0
  -90.1604   26.2756    1.0259 O   0  0  0  0  0  0  0  0  0  0  0  0
  -87.7851   25.0490   -0.7334 H   0  0  0  0  0  0  0  0  0  0  0  0
  -88.5741   24.2010    0.6481 H   0  0  0  0  0  0  0  0  0  0  0  0
  -86.5200   33.9228   -2.7838 N   0  0  0  0  0  0  0  0  0  0  0  0
  -85.8265   34.6430   -3.1307 H   0  0  0  0  0  0  0  0  0  0  0  0
  -87.7111   33.7846   -3.5161 C   0  0  0  0  0  0  0  0  0  0  0  0
  -88.7592   34.6685   -3.2230 C   0  0  0  0  0  0  0  0  0  0  0  0
  -89.9602   34.6184   -3.8974 C   0  0  0  0  0  0  0  0  0  0  0  0
  -90.1967   33.7027   -4.8908 C   0  0  0  0  0  0  0  0  0  0  0  0
  -89.1908   32.8251   -5.2004 C   0  0  0  0  0  0  0  0  0  0  0  0
  -87.9646   32.8755   -4.5132 C   0  0  0  0  0  0  0  0  0  0  0  0
  -91.4566   33.6422   -5.6031 N   0  0  0  0  0  0  0  0  0  0  0  0
  -91.9025   34.7600   -6.3889 C   0  0  0  0  0  0  0  0  0  0  0  0
  -93.0080   34.4820   -7.3323 C   0  0  0  0  0  0  0  0  0  0  0  0
  -93.0250   33.1283   -7.6507 O   0  0  0  0  0  0  0  0  0  0  0  0
  -93.3546   32.4275   -6.4650 C   0  0  0  0  0  0  0  0  0  0  0  0
  -92.2258   32.4476   -5.4903 C   0  0  0  0  0  0  0  0  0  0  0  0
 15 16  1  0  0  0
 16 17  2  0  0  0
 16  7  1  0  0  0
  7  8  2  0  0  0
  8  9  1  0  0  0
  9 10  1  0  0  0
  9 11  2  0  0  0
 11 12  1  0  0  0
 12 13  1  0  0  0
 12 14  2  0  0  0
 11  1  1  0  0  0
  1  2  2  0  0  0
  2  3  1  0  0  0
  3  4  2  0  0  0
  4  5  1  0  0  0
  5 20  1  0  0  0
 20 22  1  0  0  0
 22 23  2  0  0  0
 23 24  1  0  0  0
 24 25  2  0  0  0
 25 26  1  0  0  0
 26 27  2  0  0  0
 25 28  1  0  0  0
 28 29  1  0  0  0
 29 30  1  0  0  0
 30 31  1  0  0  0
 31 32  1  0  0  0
 32 33  1  0  0  0
  5  6  2  0  0  0
 14  7  1  0  0  0
  6  1  1  0  0  0
 27 22  1  0  0  0
 33 28  1  0  0  0
 15 18  1  0  0  0
 15 19  1  0  0  0
 20 21  1  0  0  0
M  END
> <minimizedAffinity>
-7.83359

> <CNNscore>
0.2766330540

> <CNNaffinity>
6.4007773399

> <CNN_VS>
1.7706665993

> <CNNaffinity_variance>
0.1353490055

$$$$
[H]c1nc(N([H])c2c([H])c([H])c(N3C([H])([H])C([H])([H])OC([H])([H])C3([H])[H])c([H])c2[H])nc(-c2c(F)c([H])c(C(=O)N([H])[H])c([H])c2F)c1[H]


 33 36  0  0  0  0  0  0  0  0999 V2000
  -86.8670   31.5276   -0.8350 C   0  0  0  0  0  0  0  0  0  0  0  0
  -85.9374   31.8618    0.1231 C   0  0  0  0  0  0  0  0  0  0  0  0
  -85.1427   32.9509   -0.1572 C   0  0  0  0  0  0  0  0  0  0  0  0
  -85.2754   33.6352   -1.2958 N   0  0  0  0  0  0  0  0  0  0  0  0
  -86.1706   33.3306   -2.2421 C   0  0  0  0  0  0  0  0  0  0  0  0
  -86.9510   32.2514   -1.9535 N   0  0  0  0  0  0  0  0  0  0  0  0
  -89.4649   28.2851   -0.2421 C   0  0  0  0  0  0  0  0  0  0  0  0
  -89.9421   29.5696   -0.1397 C   0  0  0  0  0  0  0  0  0  0  0  0
  -89.1015   30.6256   -0.3316 C   0  0  0  0  0  0  0  0  0  0  0  0
  -89.5363   31.9095   -0.2386 F   0  0  0  0  0  0  0  0  0  0  0  0
  -87.7589   30.3865   -0.6315 C   0  0  0  0  0  0  0  0  0  0  0  0
  -87.2582   29.1135   -0.7392 C   0  0  0  0  0  0  0  0  0  0  0  0
  -85.9494   28.9473   -1.0317 F   0  0  0  0  0  0  0  0  0  0  0  0
  -88.1275   28.0692   -0.5410 C   0  0  0  0  0  0  0  0  0  0  0  0
  -91.6485   27.3700    0.5836 N   0  0  0  0  0  0  0  0  0  0  0  0
  -90.3858   27.1868   -0.0322 C   0  0  0  0  0  0  0  0  0  0  0  0
  -90.0657   26.0335   -0.4030 O   0  0  0  0  0  0  0  0  0  0  0  0
  -91.7784   28.1036    1.3355 H   0  0  0  0  0  0  0  0  0  0  0  0
  -92.4870   26.7934    0.3199 H   0  0  0  0  0  0  0  0  0  0  0  0
  -86.3620   34.0080   -3.4624 N   0  0  0  0  0  0  0  0  0  0  0  0
  -85.5040   34.4992   -3.8397 H   0  0  0  0  0  0  0  0  0  0  0  0
  -87.5357   34.1020   -4.2290 C   0  0  0  0  0  0  0  0  0  0  0  0
  -88.2158   32.9117   -4.5228 C   0  0  0  0  0  0  0  0  0  0  0  0
  -89.3823   32.9051   -5.2570 C   0  0  0  0  0  0  0  0  0  0  0  0
  -89.9418   34.0605   -5.7403 C   0  0  0  0  0  0  0  0  0  0  0  0
  -89.3001   35.2405   -5.4690 C   0  0  0  0  0  0  0  0  0  0  0  0
  -88.1098   35.2486   -4.7197 C   0  0  0  0  0  0  0  0  0  0  0  0
  -91.1663   34.0621   -6.5141 N   0  0  0  0  0  0  0  0  0  0  0  0
  -91.1322   34.3095   -7.9295 C   0  0  0  0  0  0  0  0  0  0  0  0
  -92.3629   33.9596   -8.6728 C   0  0  0  0  0  0  0  0  0  0  0  0
  -93.0766   32.9934   -7.9719 O   0  0  0  0  0  0  0  0  0  0  0  0
  -93.5197   33.5961   -6.7694 C   0  0  0  0  0  0  0  0  0  0  0  0
  -92.3883   33.8161   -5.8228 C   0  0  0  0  0  0  0  0  0  0  0  0
 15 16  1  0  0  0
 16 17  2  0  0  0
 16  7  1  0  0  0
  7  8  2  0  0  0
  8  9  1  0  0  0
  9 10  1  0  0  0
  9 11  2  0  0  0
 11 12  1  0  0  0
 12 13  1  0  0  0
 12 14  2  0  0  0
 11  1  1  0  0  0
  1  2  2  0  0  0
  2  3  1  0  0  0
  3  4  2  0  0  0
  4  5  1  0  0  0
  5 20  1  0  0  0
 20 22  1  0  0  0
 22 23  2  0  0  0
 23 24  1  0  0  0
 24 25  2  0  0  0
 25 26  1  0  0  0
 26 27  2  0  0  0
 25 28  1  0  0  0
 28 29  1  0  0  0
 29 30  1  0  0  0
 30 31  1  0  0  0
 31 32  1  0  0  0
 32 33  1  0  0  0
  5  6  2  0  0  0
 14  7  1  0  0  0
  6  1  1  0  0  0
 27 22  1  0  0  0
 33 28  1  0  0  0
 15 18  1  0  0  0
 15 19  1  0  0  0
 20 21  1  0  0  0
M  END
> <minimizedAffinity>
-7.98721

> <CNNscore>
0.2631743550

> <CNNaffinity>
6.0514802933

> <CNN_VS>
1.5925943851

> <CNNaffinity_variance>
0.1717821658

$$$$
[H]c1nc(N([H])c2c([H])c([H])c(N3C([H])([H])C([H])([H])OC([H])([H])C3([H])[H])c([H])c2[H])nc(-c2c(F)c([H])c(C(=O)N([H])[H])c([H])c2F)c1[H]


 33 36  0  0  0  0  0  0  0  0999 V2000
  -86.8656   31.4579   -0.8302 C   0  0  0  0  0  0  0  0  0  0  0  0
  -85.9274   31.6682    0.1544 C   0  0  0  0  0  0  0  0  0  0  0  0
  -85.0724   32.7300   -0.0399 C   0  0  0  0  0  0  0  0  0  0  0  0
  -85.1581   33.5037   -1.1245 N   0  0  0  0  0  0  0  0  0  0  0  0
  -86.0604   33.3200   -2.0950 C   0  0  0  0  0  0  0  0  0  0  0  0
  -86.9006   32.2667   -1.8916 N   0  0  0  0  0  0  0  0  0  0  0  0
  -89.6403   28.3272   -0.4922 C   0  0  0  0  0  0  0  0  0  0  0  0
  -90.0396   29.6212   -0.2594 C   0  0  0  0  0  0  0  0  0  0  0  0
  -89.1414   30.6410   -0.3682 C   0  0  0  0  0  0  0  0  0  0  0  0
  -89.4986   31.9330   -0.1458 F   0  0  0  0  0  0  0  0  0  0  0  0
  -87.8198   30.3554   -0.7168 C   0  0  0  0  0  0  0  0  0  0  0  0
  -87.3964   29.0719   -0.9542 C   0  0  0  0  0  0  0  0  0  0  0  0
  -86.1042   28.8599   -1.2879 F   0  0  0  0  0  0  0  0  0  0  0  0
  -88.3225   28.0648   -0.8374 C   0  0  0  0  0  0  0  0  0  0  0  0
  -91.6759   27.3259    0.5760 N   0  0  0  0  0  0  0  0  0  0  0  0
  -90.6208   27.2683   -0.3678 C   0  0  0  0  0  0  0  0  0  0  0  0
  -90.5430   26.2643   -1.1136 O   0  0  0  0  0  0  0  0  0  0  0  0
  -91.5364   27.8053    1.5093 H   0  0  0  0  0  0  0  0  0  0  0  0
  -92.6187   26.9017    0.3858 H   0  0  0  0  0  0  0  0  0  0  0  0
  -86.2043   34.0961   -3.2619 N   0  0  0  0  0  0  0  0  0  0  0  0
  -85.3026   34.2989   -3.7772 H   0  0  0  0  0  0  0  0  0  0  0  0
  -87.3842   34.6189   -3.8175 C   0  0  0  0  0  0  0  0  0  0  0  0
  -87.8926   35.8026   -3.2644 C   0  0  0  0  0  0  0  0  0  0  0  0
  -89.0368   36.3974   -3.7509 C   0  0  0  0  0  0  0  0  0  0  0  0
  -89.7407   35.8655   -4.8012 C   0  0  0  0  0  0  0  0  0  0  0  0
  -89.2681   34.7085   -5.3633 C   0  0  0  0  0  0  0  0  0  0  0  0
  -88.1004   34.1007   -4.8680 C   0  0  0  0  0  0  0  0  0  0  0  0
  -90.9449   36.4833   -5.3173 N   0  0  0  0  0  0  0  0  0  0  0  0
  -91.8192   35.7529   -6.1937 C   0  0  0  0  0  0  0  0  0  0  0  0
  -93.1657   36.3345   -6.3888 C   0  0  0  0  0  0  0  0  0  0  0  0
  -93.4913   37.1408   -5.3035 O   0  0  0  0  0  0  0  0  0  0  0  0
  -92.5986   38.2401   -5.3209 C   0  0  0  0  0  0  0  0  0  0  0  0
  -91.2200   37.8268   -4.9291 C   0  0  0  0  0  0  0  0  0  0  0  0
 15 16  1  0  0  0
 16 17  2  0  0  0
 16  7  1  0  0  0
  7  8  2  0  0  0
  8  9  1  0  0  0
  9 10  1  0  0  0
  9 11  2  0  0  0
 11 12  1  0  0  0
 12 13  1  0  0  0
 12 14  2  0  0  0
 11  1  1  0  0  0
  1  2  2  0  0  0
  2  3  1  0  0  0
  3  4  2  0  0  0
  4  5  1  0  0  0
  5 20  1  0  0  0
 20 22  1  0  0  0
 22 23  2  0  0  0
 23 24  1  0  0  0
 24 25  2  0  0  0
 25 26  1  0  0  0
 26 27  2  0  0  0
 25 28  1  0  0  0
 28 29  1  0  0  0
 29 30  1  0  0  0
 30 31  1  0  0  0
 31 32  1  0  0  0
 32 33  1  0  0  0
  5  6  2  0  0  0
 14  7  1  0  0  0
  6  1  1  0  0  0
 27 22  1  0  0  0
 33 28  1  0  0  0
 15 18  1  0  0  0
 15 19  1  0  0  0
 20 21  1  0  0  0
M  END
> <minimizedAffinity>
-7.54298

> <CNNscore>
0.2300285548

> <CNNaffinity>
6.1741204262

> <CNN_VS>
1.4202239513

> <CNNaffinity_variance>
0.0818547308

$$$$
[H]c1nc(N([H])c2c([H])c([H])c(N3C([H])([H])C([H])([H])OC([H])([H])C3([H])[H])c([H])c2[H])nc(-c2c(F)c([H])c(C(=O)N([H])[H])c([H])c2F)c1[H]


 33 36  0  0  0  0  0  0  0  0999 V2000
  -87.5215   31.2359   -1.5961 C   0  0  0  0  0  0  0  0  0  0  0  0
  -86.8846   31.3211   -0.3791 C   0  0  0  0  0  0  0  0  0  0  0  0
  -86.0571   32.4076   -0.2028 C   0  0  0  0  0  0  0  0  0  0  0  0
  -85.8900   33.3190   -1.1639 N   0  0  0  0  0  0  0  0  0  0  0  0
  -86.4972   33.2587   -2.3545 C   0  0  0  0  0  0  0  0  0  0  0  0
  -87.3133   32.1796   -2.5171 N   0  0  0  0  0  0  0  0  0  0  0  0
  -90.0650   27.9988   -2.4121 C   0  0  0  0  0  0  0  0  0  0  0  0
  -88.7225   27.7798   -2.2172 C   0  0  0  0  0  0  0  0  0  0  0  0
  -87.8930   28.8286   -1.9519 C   0  0  0  0  0  0  0  0  0  0  0  0
  -86.5604   28.6517   -1.7536 F   0  0  0  0  0  0  0  0  0  0  0  0
  -88.4216   30.1191   -1.8813 C   0  0  0  0  0  0  0  0  0  0  0  0
  -89.7582   30.3638   -2.0720 C   0  0  0  0  0  0  0  0  0  0  0  0
  -90.2091   31.6351   -1.9909 F   0  0  0  0  0  0  0  0  0  0  0  0
  -90.5701   29.2887   -2.3376 C   0  0  0  0  0  0  0  0  0  0  0  0
  -91.5099   26.0925   -1.6600 N   0  0  0  0  0  0  0  0  0  0  0  0
  -90.9174   26.8615   -2.6919 C   0  0  0  0  0  0  0  0  0  0  0  0
  -91.1447   26.5384   -3.8811 O   0  0  0  0  0  0  0  0  0  0  0  0
  -91.0098   25.9552   -0.7373 H   0  0  0  0  0  0  0  0  0  0  0  0
  -92.4516   25.6389   -1.7725 H   0  0  0  0  0  0  0  0  0  0  0  0
  -86.3649   34.1830   -3.4094 N   0  0  0  0  0  0  0  0  0  0  0  0
  -85.4429   34.1405   -3.9272 H   0  0  0  0  0  0  0  0  0  0  0  0
  -87.2986   35.1346   -3.8529 C   0  0  0  0  0  0  0  0  0  0  0  0
  -88.6176   35.0120   -3.3940 C   0  0  0  0  0  0  0  0  0  0  0  0
  -89.6002   35.9051   -3.7638 C   0  0  0  0  0  0  0  0  0  0  0  0
  -89.3428   36.9616   -4.6000 C   0  0  0  0  0  0  0  0  0  0  0  0
  -88.0621   37.1081   -5.0650 C   0  0  0  0  0  0  0  0  0  0  0  0
  -87.0586   36.1975   -4.6881 C   0  0  0  0  0  0  0  0  0  0  0  0
  -90.3699   37.9035   -4.9949 N   0  0  0  0  0  0  0  0  0  0  0  0
  -91.0724   37.7355   -6.2375 C   0  0  0  0  0  0  0  0  0  0  0  0
  -92.3098   38.5324   -6.3889 C   0  0  0  0  0  0  0  0  0  0  0  0
  -92.8179   38.8545   -5.1350 O   0  0  0  0  0  0  0  0  0  0  0  0
  -91.8829   39.7216   -4.5189 C   0  0  0  0  0  0  0  0  0  0  0  0
  -90.6475   38.9899   -4.1149 C   0  0  0  0  0  0  0  0  0  0  0  0
 15 16  1  0  0  0
 16 17  2  0  0  0
 16  7  1  0  0  0
  7  8  2  0  0  0
  8  9  1  0  0  0
  9 10  1  0  0  0
  9 11  2  0  0  0
 11 12  1  0  0  0
 12 13  1  0  0  0
 12 14  2  0  0  0
 11  1  1  0  0  0
  1  2  2  0  0  0
  2  3  1  0  0  0
  3  4  2  0  0  0
  4  5  1  0  0  0
  5 20  1  0  0  0
 20 22  1  0  0  0
 22 23  2  0  0  0
 23 24  1  0  0  0
 24 25  2  0  0  0
 25 26  1  0  0  0
 26 27  2  0  0  0
 25 28  1  0  0  0
 28 29  1  0  0  0
 29 30  1  0  0  0
 30 31  1  0  0  0
 31 32  1  0  0  0
 32 33  1  0  0  0
  5  6  2  0  0  0
 14  7  1  0  0  0
  6  1  1  0  0  0
 27 22  1  0  0  0
 33 28  1  0  0  0
 15 18  1  0  0  0
 15 19  1  0  0  0
 20 21  1  0  0  0
M  END
> <minimizedAffinity>
-7.06021

> <CNNscore>
0.1498097926

> <CNNaffinity>
5.8341093063

> <CNN_VS>
0.8740066886

> <CNNaffinity_variance>
0.1967443377

$$$$
[H]c1nc(N([H])c2c([H])c([H])c(N3C([H])([H])C([H])([H])OC([H])([H])C3([H])[H])c([H])c2[H])nc(-c2c(F)c([H])c(C(=O)N([H])[H])c([H])c2F)c1[H]


 33 36  0  0  0  0  0  0  0  0999 V2000
  -85.7483   30.7341    0.9780 C   0  0  0  0  0  0  0  0  0  0  0  0
  -85.0946   31.1650    2.1098 C   0  0  0  0  0  0  0  0  0  0  0  0
  -84.7412   30.1888    3.0145 C   0  0  0  0  0  0  0  0  0  0  0  0
  -85.0218   28.9021    2.7957 N   0  0  0  0  0  0  0  0  0  0  0  0
  -85.6558   28.4582    1.7045 C   0  0  0  0  0  0  0  0  0  0  0  0
  -86.0002   29.4330    0.8168 N   0  0  0  0  0  0  0  0  0  0  0  0
  -86.9934   33.4699   -1.9509 C   0  0  0  0  0  0  0  0  0  0  0  0
  -87.9025   32.5997   -1.3993 C   0  0  0  0  0  0  0  0  0  0  0  0
  -87.5021   31.7094   -0.4476 C   0  0  0  0  0  0  0  0  0  0  0  0
  -88.3716   30.8336    0.1208 F   0  0  0  0  0  0  0  0  0  0  0  0
  -86.1656   31.6937   -0.0435 C   0  0  0  0  0  0  0  0  0  0  0  0
  -85.2388   32.5523   -0.5790 C   0  0  0  0  0  0  0  0  0  0  0  0
  -83.9601   32.4880   -0.1465 F   0  0  0  0  0  0  0  0  0  0  0  0
  -85.6702   33.4380   -1.5355 C   0  0  0  0  0  0  0  0  0  0  0  0
  -86.5982   34.8937   -3.9767 N   0  0  0  0  0  0  0  0  0  0  0  0
  -87.4533   34.4024   -2.9595 C   0  0  0  0  0  0  0  0  0  0  0  0
  -88.6435   34.7939   -2.9413 O   0  0  0  0  0  0  0  0  0  0  0  0
  -85.5671   35.0401   -3.7877 H   0  0  0  0  0  0  0  0  0  0  0  0
  -86.9518   35.1263   -4.9390 H   0  0  0  0  0  0  0  0  0  0  0  0
  -85.9825   27.1192    1.4128 N   0  0  0  0  0  0  0  0  0  0  0  0
  -85.1627   26.4500    1.4106 H   0  0  0  0  0  0  0  0  0  0  0  0
  -87.2474   26.5742    1.1354 C   0  0  0  0  0  0  0  0  0  0  0  0
  -88.1279   26.3975    2.2120 C   0  0  0  0  0  0  0  0  0  0  0  0
  -89.3942   25.8824    2.0363 C   0  0  0  0  0  0  0  0  0  0  0  0
  -89.8627   25.5145    0.8007 C   0  0  0  0  0  0  0  0  0  0  0  0
  -89.0250   25.6758   -0.2717 C   0  0  0  0  0  0  0  0  0  0  0  0
  -87.7326   26.2016   -0.0937 C   0  0  0  0  0  0  0  0  0  0  0  0
  -91.1914   24.9708    0.6077 N   0  0  0  0  0  0  0  0  0  0  0  0
  -92.1156   25.6092   -0.2891 C   0  0  0  0  0  0  0  0  0  0  0  0
  -93.2980   24.8064   -0.6719 C   0  0  0  0  0  0  0  0  0  0  0  0
  -93.0133   23.4526   -0.5292 O   0  0  0  0  0  0  0  0  0  0  0  0
  -92.8245   23.2120    0.8536 C   0  0  0  0  0  0  0  0  0  0  0  0
  -91.5401   23.7966    1.3365 C   0  0  0  0  0  0  0  0  0  0  0  0
 15 16  1  0  0  0
 16 17  2  0  0  0
 16  7  1  0  0  0
  7  8  2  0  0  0
  8  9  1  0  0  0
  9 10  1  0  0  0
  9 11  2  0  0  0
 11 12  1  0  0  0
 12 13  1  0  0  0
 12 14  2  0  0  0
 11  1  1  0  0  0
  1  2  2  0  0  0
  2  3  1  0  0  0
  3  4  2  0  0  0
  4  5  1  0  0  0
  5 20  1  0  0  0
 20 22  1  0  0  0
 22 23  2  0  0  0
 23 24  1  0  0  0
 24 25  2  0  0  0
 25 26  1  0  0  0
 26 27  2  0  0  0
 25 28  1  0  0  0
 28 29  1  0  0  0
 29 30  1  0  0  0
 30 31  1  0  0  0
 31 32  1  0  0  0
 32 33  1  0  0  0
  5  6  2  0  0  0
 14  7  1  0  0  0
  6  1  1  0  0  0
 27 22  1  0  0  0
 33 28  1  0  0  0
 15 18  1  0  0  0
 15 19  1  0  0  0
 20 21  1  0  0  0
M  END
> <minimizedAffinity>
-8.82688

> <CNNscore>
0.0952738002

> <CNNaffinity>
6.1314134598

> <CNN_VS>
0.5841630697

> <CNNaffinity_variance>
0.3808946609

$$$$
[H]c1nc(N([H])c2c([H])c([H])c(N3C([H])([H])C([H])([H])OC([H])([H])C3([H])[H])c([H])c2[H])nc(-c2c(F)c([H])c(C(=O)N([H])[H])c([H])c2F)c1[H]


 33 36  0  0  0  0  0  0  0  0999 V2000
  -85.9232   31.4964    0.0937 C   0  0  0  0  0  0  0  0  0  0  0  0
  -84.9093   32.0962    0.8051 C   0  0  0  0  0  0  0  0  0  0  0  0
  -84.1311   31.2598    1.5739 C   0  0  0  0  0  0  0  0  0  0  0  0
  -84.3566   29.9447    1.6187 N   0  0  0  0  0  0  0  0  0  0  0  0
  -85.3349   29.3380    0.9371 C   0  0  0  0  0  0  0  0  0  0  0  0
  -86.0979   30.1757    0.1802 N   0  0  0  0  0  0  0  0  0  0  0  0
  -88.4145   33.8245   -2.3532 C   0  0  0  0  0  0  0  0  0  0  0  0
  -87.0566   34.0343   -2.3655 C   0  0  0  0  0  0  0  0  0  0  0  0
  -86.2439   33.2802   -1.5722 C   0  0  0  0  0  0  0  0  0  0  0  0
  -84.8969   33.4582   -1.5569 F   0  0  0  0  0  0  0  0  0  0  0  0
  -86.8054   32.2987   -0.7529 C   0  0  0  0  0  0  0  0  0  0  0  0
  -88.1580   32.0700   -0.7226 C   0  0  0  0  0  0  0  0  0  0  0  0
  -88.6409   31.1056    0.0916 F   0  0  0  0  0  0  0  0  0  0  0  0
  -88.9523   32.8443   -1.5320 C   0  0  0  0  0  0  0  0  0  0  0  0
  -90.4156   34.1372   -3.8314 N   0  0  0  0  0  0  0  0  0  0  0  0
  -89.2482   34.6438   -3.2087 C   0  0  0  0  0  0  0  0  0  0  0  0
  -88.9364   35.8404   -3.4117 O   0  0  0  0  0  0  0  0  0  0  0  0
  -90.4666   33.1242   -4.1342 H   0  0  0  0  0  0  0  0  0  0  0  0
  -91.2582   34.7394   -4.0116 H   0  0  0  0  0  0  0  0  0  0  0  0
  -85.6271   27.9599    0.9402 N   0  0  0  0  0  0  0  0  0  0  0  0
  -84.7813   27.3242    0.9216 H   0  0  0  0  0  0  0  0  0  0  0  0
  -86.8871   27.3391    0.9712 C   0  0  0  0  0  0  0  0  0  0  0  0
  -87.4695   26.9917   -0.2560 C   0  0  0  0  0  0  0  0  0  0  0  0
  -88.6964   26.3676   -0.3257 C   0  0  0  0  0  0  0  0  0  0  0  0
  -89.4149   26.0522    0.7994 C   0  0  0  0  0  0  0  0  0  0  0  0
  -88.8713   26.3790    2.0142 C   0  0  0  0  0  0  0  0  0  0  0  0
  -87.6193   27.0156    2.0866 C   0  0  0  0  0  0  0  0  0  0  0  0
  -90.7056   25.3980    0.7348 N   0  0  0  0  0  0  0  0  0  0  0  0
  -91.7379   25.9086   -0.1252 C   0  0  0  0  0  0  0  0  0  0  0  0
  -92.8755   24.9961   -0.3753 C   0  0  0  0  0  0  0  0  0  0  0  0
  -92.4735   23.6791   -0.1799 O   0  0  0  0  0  0  0  0  0  0  0  0
  -92.1710   23.5378    1.1964 C   0  0  0  0  0  0  0  0  0  0  0  0
  -90.9075   24.2469    1.5507 C   0  0  0  0  0  0  0  0  0  0  0  0
 15 16  1  0  0  0
 16 17  2  0  0  0
 16  7  1  0  0  0
  7  8  2  0  0  0
  8  9  1  0  0  0
  9 10  1  0  0  0
  9 11  2  0  0  0
 11 12  1  0  0  0
 12 13  1  0  0  0
 12 14  2  0  0  0
 11  1  1  0  0  0
  1  2  2  0  0  0
  2  3  1  0  0  0
  3  4  2  0  0  0
  4  5  1  0  0  0
  5 20  1  0  0  0
 20 22  1  0  0  0
 22 23  2  0  0  0
 23 24  1  0  0  0
 24 25  2  0  0  0
 25 26  1  0  0  0
 26 27  2  0  0  0
 25 28  1  0  0  0
 28 29  1  0  0  0
 29 30  1  0  0  0
 30 31  1  0  0  0
 31 32  1  0  0  0
 32 33  1  0  0  0
  5  6  2  0  0  0
 14  7  1  0  0  0
  6  1  1  0  0  0
 27 22  1  0  0  0
 33 28  1  0  0  0
 15 18  1  0  0  0
 15 19  1  0  0  0
 20 21  1  0  0  0
M  END
> <minimizedAffinity>
-8.62973

> <CNNscore>
0.0795689598

> <CNNaffinity>
6.0417718887

> <CNN_VS>
0.4807375073

> <CNNaffinity_variance>
0.1714521348

$$$$
[H]c1c([H])c([H])c(N([H])C2=C(C3([H])C(=O)N3C([H])([H])C([H])([H])[H])C([H])([H])C([H])([H])C2=O)c(F)c1[H]


 21 23  0  0  0  0  0  0  0  0999 V2000
  -86.1171   29.6644    0.5868 C   0  0  0  0  0  0  0  0  0  0  0  0
  -86.6391   30.4433   -0.3353 C   0  0  0  0  0  0  0  0  0  0  0  0
  -87.3367   29.6463   -1.3304 C   0  0  0  0  0  0  0  0  0  0  0  0
  -87.7380   30.0240   -2.4839 O   0  0  0  0  0  0  0  0  0  0  0  0
  -87.4991   28.2932   -0.7511 C   0  0  0  0  0  0  0  0  0  0  0  0
  -86.4205   28.2509    0.2945 C   0  0  0  0  0  0  0  0  0  0  0  0
  -83.9070   30.3096    1.6253 N   0  0  0  0  0  0  0  0  0  0  0  0
  -85.3260   30.1874    1.7645 C   0  0  0  0  0  0  0  0  0  0  0  0
  -84.4444   29.1381    2.3682 C   0  0  0  0  0  0  0  0  0  0  0  0
  -84.2320   28.0858    3.0040 O   0  0  0  0  0  0  0  0  0  0  0  0
  -83.0323   32.0275    0.2171 C   0  0  0  0  0  0  0  0  0  0  0  0
  -82.7101   30.9284    1.1929 C   0  0  0  0  0  0  0  0  0  0  0  0
  -86.5309   31.8674   -0.3487 N   0  0  0  0  0  0  0  0  0  0  0  0
  -85.9480   32.2981    0.4000 H   0  0  0  0  0  0  0  0  0  0  0  0
  -87.1607   32.6856   -1.3030 C   0  0  0  0  0  0  0  0  0  0  0  0
  -86.4114   33.2599   -2.3205 C   0  0  0  0  0  0  0  0  0  0  0  0
  -86.9454   34.0688   -3.2898 C   0  0  0  0  0  0  0  0  0  0  0  0
  -88.2930   34.3388   -3.2723 C   0  0  0  0  0  0  0  0  0  0  0  0
  -89.0687   33.7768   -2.2646 C   0  0  0  0  0  0  0  0  0  0  0  0
  -88.5052   32.9656   -1.3006 C   0  0  0  0  0  0  0  0  0  0  0  0
  -89.2756   32.4199   -0.3168 F   0  0  0  0  0  0  0  0  0  0  0  0
 11 12  1  0  0  0
 12  7  1  0  0  0
  7  8  1  0  0  0
  8  1  1  0  0  0
  1  2  2  0  0  0
  2 13  1  0  0  0
 13 15  1  0  0  0
 15 16  2  0  0  0
 16 17  1  0  0  0
 17 18  2  0  0  0
 18 19  1  0  0  0
 19 20  2  0  0  0
 20 21  1  0  0  0
  2  3  1  0  0  0
  3  4  2  0  0  0
  3  5  1  0  0  0
  5  6  1  0  0  0
  8  9  1  0  0  0
  9 10  2  0  0  0
  9  7  1  0  0  0
  6  1  1  0  0  0
 20 15  1  0  0  0
 13 14  1  0  0  0
M  END
> <minimizedAffinity>
-7.23140

> <CNNscore>
0.7129099369

> <CNNaffinity>
6.1432991028

> <CNN_VS>
4.3796191216

> <CNNaffinity_variance>
0.2676601708

$$$$
[H]c1c([H])c([H])c(N([H])C2=C(C3([H])C(=O)N3C([H])([H])C([H])([H])[H])C([H])([H])C([H])([H])C2=O)c(F)c1[H]


 21 23  0  0  0  0  0  0  0  0999 V2000
  -84.8949   31.0782    0.4661 C   0  0  0  0  0  0  0  0  0  0  0  0
  -84.9732   32.3240    0.0524 C   0  0  0  0  0  0  0  0  0  0  0  0
  -83.6480   32.8361   -0.2534 C   0  0  0  0  0  0  0  0  0  0  0  0
  -83.3104   34.0562   -0.4316 O   0  0  0  0  0  0  0  0  0  0  0  0
  -82.7461   31.6635   -0.3214 C   0  0  0  0  0  0  0  0  0  0  0  0
  -83.4899   30.6294    0.4759 C   0  0  0  0  0  0  0  0  0  0  0  0
  -85.9300   28.8502    1.0530 N   0  0  0  0  0  0  0  0  0  0  0  0
  -86.1015   30.2584    0.8641 C   0  0  0  0  0  0  0  0  0  0  0  0
  -86.5358   29.3222   -0.2211 C   0  0  0  0  0  0  0  0  0  0  0  0
  -87.0247   29.0530   -1.3371 O   0  0  0  0  0  0  0  0  0  0  0  0
  -86.6994   26.7376    1.8556 C   0  0  0  0  0  0  0  0  0  0  0  0
  -85.5388   27.6906    1.7635 C   0  0  0  0  0  0  0  0  0  0  0  0
  -86.1905   33.0602   -0.0751 N   0  0  0  0  0  0  0  0  0  0  0  0
  -86.3801   33.7784    0.6557 H   0  0  0  0  0  0  0  0  0  0  0  0
  -87.1143   32.8598   -1.1159 C   0  0  0  0  0  0  0  0  0  0  0  0
  -88.4176   32.4861   -0.8180 C   0  0  0  0  0  0  0  0  0  0  0  0
  -89.3796   32.2707   -1.7704 C   0  0  0  0  0  0  0  0  0  0  0  0
  -89.0583   32.4276   -3.0976 C   0  0  0  0  0  0  0  0  0  0  0  0
  -87.7600   32.8017   -3.4257 C   0  0  0  0  0  0  0  0  0  0  0  0
  -86.8105   33.0122   -2.4464 C   0  0  0  0  0  0  0  0  0  0  0  0
  -85.5402   33.3788   -2.7797 F   0  0  0  0  0  0  0  0  0  0  0  0
 11 12  1  0  0  0
 12  7  1  0  0  0
  7  8  1  0  0  0
  8  1  1  0  0  0
  1  2  2  0  0  0
  2 13  1  0  0  0
 13 15  1  0  0  0
 15 16  2  0  0  0
 16 17  1  0  0  0
 17 18  2  0  0  0
 18 19  1  0  0  0
 19 20  2  0  0  0
 20 21  1  0  0  0
  2  3  1  0  0  0
  3  4  2  0  0  0
  3  5  1  0  0  0
  5  6  1  0  0  0
  8  9  1  0  0  0
  9 10  2  0  0  0
  9  7  1  0  0  0
  6  1  1  0  0  0
 20 15  1  0  0  0
 13 14  1  0  0  0
M  END
> <minimizedAffinity>
-7.04974

> <CNNscore>
0.5611422658

> <CNNaffinity>
5.8013348579

> <CNN_VS>
3.2553741932

> <CNNaffinity_variance>
0.0553014390

$$$$
[H]c1c([H])c([H])c(N([H])C2=C(C3([H])C(=O)N3C([H])([H])C([H])([H])[H])C([H])([H])C([H])([H])C2=O)c(F)c1[H]


 21 23  0  0  0  0  0  0  0  0999 V2000
  -87.3112   28.6014    0.7652 C   0  0  0  0  0  0  0  0  0  0  0  0
  -86.2045   28.6375    1.4747 C   0  0  0  0  0  0  0  0  0  0  0  0
  -85.6806   27.2944    1.6573 C   0  0  0  0  0  0  0  0  0  0  0  0
  -84.7844   26.9180    2.4876 O   0  0  0  0  0  0  0  0  0  0  0  0
  -86.3888   26.4281    0.6872 C   0  0  0  0  0  0  0  0  0  0  0  0
  -87.6385   27.2109    0.3978 C   0  0  0  0  0  0  0  0  0  0  0  0
  -89.4016   29.6611   -0.1766 N   0  0  0  0  0  0  0  0  0  0  0  0
  -88.1033   29.8363    0.3994 C   0  0  0  0  0  0  0  0  0  0  0  0
  -88.2670   29.9888   -1.0814 C   0  0  0  0  0  0  0  0  0  0  0  0
  -87.8498   30.2112   -2.2360 O   0  0  0  0  0  0  0  0  0  0  0  0
  -91.1521   28.7274    1.1512 C   0  0  0  0  0  0  0  0  0  0  0  0
  -90.7911   29.3947   -0.1481 C   0  0  0  0  0  0  0  0  0  0  0  0
  -85.6101   29.8305    1.9881 N   0  0  0  0  0  0  0  0  0  0  0  0
  -85.9126   30.1305    2.9390 H   0  0  0  0  0  0  0  0  0  0  0  0
  -84.6622   30.5922    1.2824 C   0  0  0  0  0  0  0  0  0  0  0  0
  -85.0837   31.6341    0.4678 C   0  0  0  0  0  0  0  0  0  0  0  0
  -84.2274   32.4249   -0.2536 C   0  0  0  0  0  0  0  0  0  0  0  0
  -82.8749   32.1912   -0.1811 C   0  0  0  0  0  0  0  0  0  0  0  0
  -82.4236   31.1539    0.6274 C   0  0  0  0  0  0  0  0  0  0  0  0
  -83.3080   30.3726    1.3433 C   0  0  0  0  0  0  0  0  0  0  0  0
  -82.8542   29.3579    2.1330 F   0  0  0  0  0  0  0  0  0  0  0  0
 11 12  1  0  0  0
 12  7  1  0  0  0
  7  8  1  0  0  0
  8  1  1  0  0  0
  1  2  2  0  0  0
  2 13  1  0  0  0
 13 15  1  0  0  0
 15 16  2  0  0  0
 16 17  1  0  0  0
 17 18  2  0  0  0
 18 19  1  0  0  0
 19 20  2  0  0  0
 20 21  1  0  0  0
  2  3  1  0  0  0
  3  4  2  0  0  0
  3  5  1  0  0  0
  5  6  1  0  0  0
  8  9  1  0  0  0
  9 10  2  0  0  0
  9  7  1  0  0  0
  6  1  1  0  0  0
 20 15  1  0  0  0
 13 14  1  0  0  0
M  END
> <minimizedAffinity>
-7.00895

> <CNNscore>
0.5357916355

> <CNNaffinity>
6.0938348770

> <CNN_VS>
3.2650258541

> <CNNaffinity_variance>
0.2091613561

$$$$
[H]c1c([H])c([H])c(N([H])C2=C(C3([H])C(=O)N3C([H])([H])C([H])([H])[H])C([H])([H])C([H])([H])C2=O)c(F)c1[H]


 21 23  0  0  0  0  0  0  0  0999 V2000
  -86.4174   30.7711   -0.1237 C   0  0  0  0  0  0  0  0  0  0  0  0
  -86.4766   29.6408    0.5459 C   0  0  0  0  0  0  0  0  0  0  0  0
  -85.4953   29.6398    1.6178 C   0  0  0  0  0  0  0  0  0  0  0  0
  -85.0930   28.6360    2.2997 O   0  0  0  0  0  0  0  0  0  0  0  0
  -85.0401   31.0399    1.7765 C   0  0  0  0  0  0  0  0  0  0  0  0
  -85.3771   31.6488    0.4445 C   0  0  0  0  0  0  0  0  0  0  0  0
  -87.2015   32.3770   -1.9086 N   0  0  0  0  0  0  0  0  0  0  0  0
  -87.3106   31.0852   -1.3026 C   0  0  0  0  0  0  0  0  0  0  0  0
  -88.3350   32.1281   -0.9778 C   0  0  0  0  0  0  0  0  0  0  0  0
  -89.3579   32.5502   -0.4013 O   0  0  0  0  0  0  0  0  0  0  0  0
  -87.5103   34.5587   -2.8275 C   0  0  0  0  0  0  0  0  0  0  0  0
  -86.6100   33.3562   -2.7415 C   0  0  0  0  0  0  0  0  0  0  0  0
  -87.3791   28.5729    0.2542 N   0  0  0  0  0  0  0  0  0  0  0  0
  -87.1606   27.9930   -0.5835 H   0  0  0  0  0  0  0  0  0  0  0  0
  -88.5157   28.2826    1.0293 C   0  0  0  0  0  0  0  0  0  0  0  0
  -88.3781   27.5776    2.2171 C   0  0  0  0  0  0  0  0  0  0  0  0
  -89.4322   27.2533    3.0312 C   0  0  0  0  0  0  0  0  0  0  0  0
  -90.7020   27.6369    2.6712 C   0  0  0  0  0  0  0  0  0  0  0  0
  -90.8700   28.3446    1.4863 C   0  0  0  0  0  0  0  0  0  0  0  0
  -89.7909   28.6580    0.6849 C   0  0  0  0  0  0  0  0  0  0  0  0
  -89.9674   29.3524   -0.4752 F   0  0  0  0  0  0  0  0  0  0  0  0
 11 12  1  0  0  0
 12  7  1  0  0  0
  7  8  1  0  0  0
  8  1  1  0  0  0
  1  2  2  0  0  0
  2 13  1  0  0  0
 13 15  1  0  0  0
 15 16  2  0  0  0
 16 17  1  0  0  0
 17 18  2  0  0  0
 18 19  1  0  0  0
 19 20  2  0  0  0
 20 21  1  0  0  0
  2  3  1  0  0  0
  3  4  2  0  0  0
  3  5  1  0  0  0
  5  6  1  0  0  0
  8  9  1  0  0  0
  9 10  2  0  0  0
  9  7  1  0  0  0
  6  1  1  0  0  0
 20 15  1  0  0  0
 13 14  1  0  0  0
M  END
> <minimizedAffinity>
-6.33059

> <CNNscore>
0.4600406885

> <CNNaffinity>
5.6855220795

> <CNN_VS>
2.6155714989

> <CNNaffinity_variance>
0.1011836529

$$$$
[H]c1c([H])c([H])c(N([H])C2=C(C3([H])C(=O)N3C([H])([H])C([H])([H])[H])C([H])([H])C([H])([H])C2=O)c(F)c1[H]


 21 23  0  0  0  0  0  0  0  0999 V2000
  -87.5873   29.3741   -1.3710 C   0  0  0  0  0  0  0  0  0  0  0  0
  -87.1129   29.5292   -0.1543 C   0  0  0  0  0  0  0  0  0  0  0  0
  -87.1437   28.2651    0.5620 C   0  0  0  0  0  0  0  0  0  0  0  0
  -87.0068   28.0833    1.8199 O   0  0  0  0  0  0  0  0  0  0  0  0
  -87.3671   27.2092   -0.4519 C   0  0  0  0  0  0  0  0  0  0  0  0
  -87.9858   27.9710   -1.5900 C   0  0  0  0  0  0  0  0  0  0  0  0
  -88.6260   31.5538   -2.1124 N   0  0  0  0  0  0  0  0  0  0  0  0
  -87.6901   30.5027   -2.3720 C   0  0  0  0  0  0  0  0  0  0  0  0
  -89.0009   30.5028   -3.0962 C   0  0  0  0  0  0  0  0  0  0  0  0
  -89.8350   30.0388   -3.8998 O   0  0  0  0  0  0  0  0  0  0  0  0
  -88.8643   33.9107   -2.4086 C   0  0  0  0  0  0  0  0  0  0  0  0
  -89.0809   32.7399   -1.4888 C   0  0  0  0  0  0  0  0  0  0  0  0
  -86.6375   30.7664    0.3780 N   0  0  0  0  0  0  0  0  0  0  0  0
  -87.3509   31.3965    0.8023 H   0  0  0  0  0  0  0  0  0  0  0  0
  -85.2867   31.1553    0.3528 C   0  0  0  0  0  0  0  0  0  0  0  0
  -84.3279   30.3556    0.9595 C   0  0  0  0  0  0  0  0  0  0  0  0
  -82.9916   30.6603    0.9811 C   0  0  0  0  0  0  0  0  0  0  0  0
  -82.5557   31.8147    0.3754 C   0  0  0  0  0  0  0  0  0  0  0  0
  -83.4941   32.6352   -0.2405 C   0  0  0  0  0  0  0  0  0  0  0  0
  -84.8341   32.3045   -0.2474 C   0  0  0  0  0  0  0  0  0  0  0  0
  -85.7455   33.1168   -0.8545 F   0  0  0  0  0  0  0  0  0  0  0  0
 11 12  1  0  0  0
 12  7  1  0  0  0
  7  8  1  0  0  0
  8  1  1  0  0  0
  1  2  2  0  0  0
  2 13  1  0  0  0
 13 15  1  0  0  0
 15 16  2  0  0  0
 16 17  1  0  0  0
 17 18  2  0  0  0
 18 19  1  0  0  0
 19 20  2  0  0  0
 20 21  1  0  0  0
  2  3  1  0  0  0
  3  4  2  0  0  0
  3  5  1  0  0  0
  5  6  1  0  0  0
  8  9  1  0  0  0
  9 10  2  0  0  0
  9  7  1  0  0  0
  6  1  1  0  0  0
 20 15  1  0  0  0
 13 14  1  0  0  0
M  END
> <minimizedAffinity>
-7.30523

> <CNNscore>
0.3895454407

> <CNNaffinity>
5.7061204910

> <CNN_VS>
2.2227931023

> <CNNaffinity_variance>
0.1454635262

$$$$
[H]c1c([H])c([H])c(N([H])C2=C(C3([H])C(=O)N3C([H])([H])C([H])([H])[H])C([H])([H])C([H])([H])C2=O)c(F)c1[H]


 21 23  0  0  0  0  0  0  0  0999 V2000
  -86.1641   29.7578    0.8877 C   0  0  0  0  0  0  0  0  0  0  0  0
  -86.3453   28.5057    1.2469 C   0  0  0  0  0  0  0  0  0  0  0  0
  -85.1611   27.9998    1.9203 C   0  0  0  0  0  0  0  0  0  0  0  0
  -84.8761   26.7800    2.1758 O   0  0  0  0  0  0  0  0  0  0  0  0
  -84.3318   29.1783    2.2613 C   0  0  0  0  0  0  0  0  0  0  0  0
  -84.8226   30.2176    1.2931 C   0  0  0  0  0  0  0  0  0  0  0  0
  -87.3438   30.4024   -1.2506 N   0  0  0  0  0  0  0  0  0  0  0  0
  -87.2116   30.5735    0.1640 C   0  0  0  0  0  0  0  0  0  0  0  0
  -86.6062   31.5936   -0.7503 C   0  0  0  0  0  0  0  0  0  0  0  0
  -85.9719   32.6396   -0.9957 O   0  0  0  0  0  0  0  0  0  0  0  0
  -87.5252   28.2643   -2.2970 C   0  0  0  0  0  0  0  0  0  0  0  0
  -87.7711   29.7429   -2.4275 C   0  0  0  0  0  0  0  0  0  0  0  0
  -87.5383   27.7584    1.0056 N   0  0  0  0  0  0  0  0  0  0  0  0
  -87.5203   27.0982    0.1996 H   0  0  0  0  0  0  0  0  0  0  0  0
  -88.7001   27.8752    1.7887 C   0  0  0  0  0  0  0  0  0  0  0  0
  -88.6648   27.5230    3.1309 C   0  0  0  0  0  0  0  0  0  0  0  0
  -89.7501   27.6061    3.9641 C   0  0  0  0  0  0  0  0  0  0  0  0
  -90.9475   28.0601    3.4646 C   0  0  0  0  0  0  0  0  0  0  0  0
  -91.0124   28.4204    2.1233 C   0  0  0  0  0  0  0  0  0  0  0  0
  -89.9040   28.3267    1.3062 C   0  0  0  0  0  0  0  0  0  0  0  0
  -89.9792   28.6827   -0.0078 F   0  0  0  0  0  0  0  0  0  0  0  0
 11 12  1  0  0  0
 12  7  1  0  0  0
  7  8  1  0  0  0
  8  1  1  0  0  0
  1  2  2  0  0  0
  2 13  1  0  0  0
 13 15  1  0  0  0
 15 16  2  0  0  0
 16 17  1  0  0  0
 17 18  2  0  0  0
 18 19  1  0  0  0
 19 20  2  0  0  0
 20 21  1  0  0  0
  2  3  1  0  0  0
  3  4  2  0  0  0
  3  5  1  0  0  0
  5  6  1  0  0  0
  8  9  1  0  0  0
  9 10  2  0  0  0
  9  7  1  0  0  0
  6  1  1  0  0  0
 20 15  1  0  0  0
 13 14  1  0  0  0
M  END
> <minimizedAffinity>
-6.71494

> <CNNscore>
0.3683424890

> <CNNaffinity>
5.7086424828

> <CNN_VS>
2.1027355194

> <CNNaffinity_variance>
0.0967614204

$$$$
[H]c1c([H])c([H])c(N([H])C2=C(C3([H])C(=O)N3C([H])([H])C([H])([H])[H])C([H])([H])C([H])([H])C2=O)c(F)c1[H]


 21 23  0  0  0  0  0  0  0  0999 V2000
  -86.5173   31.8337   -0.5577 C   0  0  0  0  0  0  0  0  0  0  0  0
  -85.4703   32.3103    0.0796 C   0  0  0  0  0  0  0  0  0  0  0  0
  -84.7504   33.2471   -0.7667 C   0  0  0  0  0  0  0  0  0  0  0  0
  -83.5696   33.7034   -0.5885 O   0  0  0  0  0  0  0  0  0  0  0  0
  -85.6529   33.5806   -1.8924 C   0  0  0  0  0  0  0  0  0  0  0  0
  -86.6012   32.4149   -1.9107 C   0  0  0  0  0  0  0  0  0  0  0  0
  -87.9676   29.7779   -0.7808 N   0  0  0  0  0  0  0  0  0  0  0  0
  -87.4746   30.8335    0.0502 C   0  0  0  0  0  0  0  0  0  0  0  0
  -88.8534   30.9450   -0.5235 C   0  0  0  0  0  0  0  0  0  0  0  0
  -89.9477   31.5171   -0.7026 O   0  0  0  0  0  0  0  0  0  0  0  0
  -87.9131   28.7641   -2.9415 C   0  0  0  0  0  0  0  0  0  0  0  0
  -87.8926   28.5356   -1.4545 C   0  0  0  0  0  0  0  0  0  0  0  0
  -85.1015   31.9529    1.4123 N   0  0  0  0  0  0  0  0  0  0  0  0
  -85.3390   32.6372    2.1615 H   0  0  0  0  0  0  0  0  0  0  0  0
  -84.4507   30.7512    1.7427 C   0  0  0  0  0  0  0  0  0  0  0  0
  -85.1670   29.7193    2.3333 C   0  0  0  0  0  0  0  0  0  0  0  0
  -84.6109   28.5173    2.6866 C   0  0  0  0  0  0  0  0  0  0  0  0
  -83.2740   28.3008    2.4525 C   0  0  0  0  0  0  0  0  0  0  0  0
  -82.5312   29.3169    1.8617 C   0  0  0  0  0  0  0  0  0  0  0  0
  -83.1165   30.5181    1.5158 C   0  0  0  0  0  0  0  0  0  0  0  0
  -82.3784   31.5077    0.9370 F   0  0  0  0  0  0  0  0  0  0  0  0
 11 12  1  0  0  0
 12  7  1  0  0  0
  7  8  1  0  0  0
  8  1  1  0  0  0
  1  2  2  0  0  0
  2 13  1  0  0  0
 13 15  1  0  0  0
 15 16  2  0  0  0
 16 17  1  0  0  0
 17 18  2  0  0  0
 18 19  1  0  0  0
 19 20  2  0  0  0
 20 21  1  0  0  0
  2  3  1  0  0  0
  3  4  2  0  0  0
  3  5  1  0  0  0
  5  6  1  0  0  0
  8  9  1  0  0  0
  9 10  2  0  0  0
  9  7  1  0  0  0
  6  1  1  0  0  0
 20 15  1  0  0  0
 13 14  1  0  0  0
M  END
> <minimizedAffinity>
-8.10850

> <CNNscore>
0.3524720967

> <CNNaffinity>
5.6039037704

> <CNN_VS>
1.9752197266

> <CNNaffinity_variance>
0.1364472210

$$$$
[H]c1c([H])c([H])c(N([H])C2=C(C3([H])C(=O)N3C([H])([H])C([H])([H])[H])C([H])([H])C([H])([H])C2=O)c(F)c1[H]


 21 23  0  0  0  0  0  0  0  0999 V2000
  -86.8431   28.2731    0.3876 C   0  0  0  0  0  0  0  0  0  0  0  0
  -86.3005   29.2008    1.1455 C   0  0  0  0  0  0  0  0  0  0  0  0
  -85.6373   28.5928    2.2868 C   0  0  0  0  0  0  0  0  0  0  0  0
  -85.2306   29.1767    3.3488 O   0  0  0  0  0  0  0  0  0  0  0  0
  -85.5179   27.1476    1.9867 C   0  0  0  0  0  0  0  0  0  0  0  0
  -86.5905   26.9356    0.9557 C   0  0  0  0  0  0  0  0  0  0  0  0
  -88.9986   28.8999   -0.7703 N   0  0  0  0  0  0  0  0  0  0  0  0
  -87.6081   28.5797   -0.8801 C   0  0  0  0  0  0  0  0  0  0  0  0
  -88.6231   27.5262   -1.2005 C   0  0  0  0  0  0  0  0  0  0  0  0
  -88.9751   26.3825   -1.5538 O   0  0  0  0  0  0  0  0  0  0  0  0
  -90.8483   29.2329    0.7019 C   0  0  0  0  0  0  0  0  0  0  0  0
  -90.1021   29.7438   -0.5007 C   0  0  0  0  0  0  0  0  0  0  0  0
  -86.3596   30.6024    0.8776 N   0  0  0  0  0  0  0  0  0  0  0  0
  -87.2709   31.0741    1.0589 H   0  0  0  0  0  0  0  0  0  0  0  0
  -85.2700   31.3476    0.3936 C   0  0  0  0  0  0  0  0  0  0  0  0
  -83.9788   30.8636    0.5532 C   0  0  0  0  0  0  0  0  0  0  0  0
  -82.8624   31.5254    0.1119 C   0  0  0  0  0  0  0  0  0  0  0  0
  -83.0062   32.7347   -0.5255 C   0  0  0  0  0  0  0  0  0  0  0  0
  -84.2881   33.2441   -0.6995 C   0  0  0  0  0  0  0  0  0  0  0  0
  -85.3954   32.5568   -0.2452 C   0  0  0  0  0  0  0  0  0  0  0  0
  -86.6480   33.0660   -0.4213 F   0  0  0  0  0  0  0  0  0  0  0  0
 11 12  1  0  0  0
 12  7  1  0  0  0
  7  8  1  0  0  0
  8  1  1  0  0  0
  1  2  2  0  0  0
  2 13  1  0  0  0
 13 15  1  0  0  0
 15 16  2  0  0  0
 16 17  1  0  0  0
 17 18  2  0  0  0
 18 19  1  0  0  0
 19 20  2  0  0  0
 20 21  1  0  0  0
  2  3  1  0  0  0
  3  4  2  0  0  0
  3  5  1  0  0  0
  5  6  1  0  0  0
  8  9  1  0  0  0
  9 10  2  0  0  0
  9  7  1  0  0  0
  6  1  1  0  0  0
 20 15  1  0  0  0
 13 14  1  0  0  0
M  END
> <minimizedAffinity>
-7.05939

> <CNNscore>
0.3268922567

> <CNNaffinity>
5.5944643021

> <CNN_VS>
1.8287870884

> <CNNaffinity_variance>
0.1440946162

$$$$
[H]c1c([H])c([H])c(N([H])C2=C(C3([H])C(=O)N3C([H])([H])C([H])([H])[H])C([H])([H])C([H])([H])C2=O)c(F)c1[H]


 21 23  0  0  0  0  0  0  0  0999 V2000
  -85.2803   29.6144    0.6944 C   0  0  0  0  0  0  0  0  0  0  0  0
  -85.9438   30.6463    0.2204 C   0  0  0  0  0  0  0  0  0  0  0  0
  -85.1323   31.8487    0.3081 C   0  0  0  0  0  0  0  0  0  0  0  0
  -85.5245   33.0593    0.1856 O   0  0  0  0  0  0  0  0  0  0  0  0
  -83.7442   31.4046    0.5700 C   0  0  0  0  0  0  0  0  0  0  0  0
  -83.9413   30.0324    1.1502 C   0  0  0  0  0  0  0  0  0  0  0  0
  -86.7461   27.8861    1.8098 N   0  0  0  0  0  0  0  0  0  0  0  0
  -85.8487   28.2142    0.7444 C   0  0  0  0  0  0  0  0  0  0  0  0
  -85.3330   27.4327    1.9132 C   0  0  0  0  0  0  0  0  0  0  0  0
  -84.4462   26.8340    2.5550 O   0  0  0  0  0  0  0  0  0  0  0  0
  -88.6395   26.5230    2.3161 C   0  0  0  0  0  0  0  0  0  0  0  0
  -87.9947   27.8730    2.4757 C   0  0  0  0  0  0  0  0  0  0  0  0
  -87.2710   30.5845   -0.3035 N   0  0  0  0  0  0  0  0  0  0  0  0
  -88.0315   30.3717    0.3763 H   0  0  0  0  0  0  0  0  0  0  0  0
  -87.5820   30.7931   -1.6587 C   0  0  0  0  0  0  0  0  0  0  0  0
  -87.8717   32.0734   -2.1101 C   0  0  0  0  0  0  0  0  0  0  0  0
  -88.1844   32.3640   -3.4127 C   0  0  0  0  0  0  0  0  0  0  0  0
  -88.2186   31.3483   -4.3382 C   0  0  0  0  0  0  0  0  0  0  0  0
  -87.9325   30.0554   -3.9145 C   0  0  0  0  0  0  0  0  0  0  0  0
  -87.6206   29.7905   -2.5963 C   0  0  0  0  0  0  0  0  0  0  0  0
  -87.3417   28.5186   -2.1919 F   0  0  0  0  0  0  0  0  0  0  0  0
 11 12  1  0  0  0
 12  7  1  0  0  0
  7  8  1  0  0  0
  8  1  1  0  0  0
  1  2  2  0  0  0
  2 13  1  0  0  0
 13 15  1  0  0  0
 15 16  2  0  0  0
 16 17  1  0  0  0
 17 18  2  0  0  0
 18 19  1  0  0  0
 19 20  2  0  0  0
 20 21  1  0  0  0
  2  3  1  0  0  0
  3  4  2  0  0  0
  3  5  1  0  0  0
  5  6  1  0  0  0
  8  9  1  0  0  0
  9 10  2  0  0  0
  9  7  1  0  0  0
  6  1  1  0  0  0
 20 15  1  0  0  0
 13 14  1  0  0  0
M  END
> <minimizedAffinity>
-6.92189

> <CNNscore>
0.3141079843

> <CNNaffinity>
5.8129010201

> <CNN_VS>
1.8258786201

> <CNNaffinity_variance>
0.2099695206

$$$$
