[H]Oc1c([H])c([H])c(-c2c([H])nc3c(c2N=O)c(-c2c([H])c([H])c([H])c([H])c2[H])c([H])n3[H])c([H])c1[H]


 26 29  0  0  0  0  0  0  0  0999 V2000
  -84.9963   31.1379    0.3513 C   0  0  0  0  0  0  0  0  0  0  0  0
  -84.3356   32.3447    0.1935 C   0  0  0  0  0  0  0  0  0  0  0  0
  -84.8665   33.3554   -0.5061 N   0  0  0  0  0  0  0  0  0  0  0  0
  -86.0647   33.2567   -1.0919 C   0  0  0  0  0  0  0  0  0  0  0  0
  -86.8086   34.1306   -1.8242 N   0  0  0  0  0  0  0  0  0  0  0  0
  -87.9482   33.5306   -2.1588 C   0  0  0  0  0  0  0  0  0  0  0  0
  -87.9728   32.2145   -1.6378 C   0  0  0  0  0  0  0  0  0  0  0  0
  -86.7769   32.0682   -0.9704 C   0  0  0  0  0  0  0  0  0  0  0  0
  -86.2278   31.0063   -0.2400 C   0  0  0  0  0  0  0  0  0  0  0  0
  -86.4837   35.0928   -2.0500 H   0  0  0  0  0  0  0  0  0  0  0  0
  -82.8834   26.9124    3.3411 O   0  0  0  0  0  0  0  0  0  0  0  0
  -83.3761   27.9769    2.5999 C   0  0  0  0  0  0  0  0  0  0  0  0
  -84.7439   28.0432    2.4179 C   0  0  0  0  0  0  0  0  0  0  0  0
  -85.2633   29.0861    1.6879 C   0  0  0  0  0  0  0  0  0  0  0  0
  -84.4277   30.0652    1.1373 C   0  0  0  0  0  0  0  0  0  0  0  0
  -83.0637   29.9790    1.3319 C   0  0  0  0  0  0  0  0  0  0  0  0
  -82.5409   28.9357    2.0624 C   0  0  0  0  0  0  0  0  0  0  0  0
  -82.6451   26.0739    2.8304 H   0  0  0  0  0  0  0  0  0  0  0  0
  -89.0559   31.2775   -1.8539 C   0  0  0  0  0  0  0  0  0  0  0  0
  -89.2341   30.6964   -3.0745 C   0  0  0  0  0  0  0  0  0  0  0  0
  -90.2634   29.7892   -3.3223 C   0  0  0  0  0  0  0  0  0  0  0  0
  -91.1287   29.4631   -2.3176 C   0  0  0  0  0  0  0  0  0  0  0  0
  -90.9772   30.0326   -1.0707 C   0  0  0  0  0  0  0  0  0  0  0  0
  -89.9416   30.9328   -0.8569 C   0  0  0  0  0  0  0  0  0  0  0  0
  -86.9836   29.7991   -0.1356 N   0  0  0  0  0  0  0  0  0  0  0  0
  -86.8755   28.9445   -1.0628 O   0  0  0  0  0  0  0  0  0  0  0  0
 11 12  1  0  0  0
 12 13  2  0  0  0
 13 14  1  0  0  0
 14 15  2  0  0  0
 15 16  1  0  0  0
 16 17  2  0  0  0
 15  1  1  0  0  0
  1  2  2  0  0  0
  2  3  1  0  0  0
  3  4  2  0  0  0
  4  5  1  0  0  0
  5  6  1  0  0  0
  6  7  2  0  0  0
  7 19  1  0  0  0
 19 20  2  0  0  0
 20 21  1  0  0  0
 21 22  2  0  0  0
 22 23  1  0  0  0
 23 24  2  0  0  0
  7  8  1  0  0  0
  8  9  2  0  0  0
  9 25  1  0  0  0
 25 26  2  0  0  0
 17 12  1  0  0  0
  9  1  1  0  0  0
  8  4  1  0  0  0
 24 19  1  0  0  0
 11 18  1  0  0  0
  5 10  1  0  0  0
M  END
> <minimizedAffinity>
-9.35888

> <CNNscore>
0.8812981844

> <CNNaffinity>
6.7484865189

> <CNN_VS>
5.9474287033

> <CNNaffinity_variance>
0.0926196799

$$$$
[H]Oc1c([H])c([H])c(-c2c([H])nc3c(c2N=O)c(-c2c([H])c([H])c([H])c([H])c2[H])c([H])n3[H])c([H])c1[H]


 26 29  0  0  0  0  0  0  0  0999 V2000
  -86.6295   32.1533   -1.2236 C   0  0  0  0  0  0  0  0  0  0  0  0
  -86.0968   33.3534   -1.6640 C   0  0  0  0  0  0  0  0  0  0  0  0
  -84.8839   33.7714   -1.2811 N   0  0  0  0  0  0  0  0  0  0  0  0
  -84.1183   33.0540   -0.4518 C   0  0  0  0  0  0  0  0  0  0  0  0
  -82.8713   33.2528    0.0571 N   0  0  0  0  0  0  0  0  0  0  0  0
  -82.5644   32.2126    0.8281 C   0  0  0  0  0  0  0  0  0  0  0  0
  -83.6351   31.2867    0.8398 C   0  0  0  0  0  0  0  0  0  0  0  0
  -84.5992   31.8395    0.0261 C   0  0  0  0  0  0  0  0  0  0  0  0
  -85.8674   31.3956   -0.3701 C   0  0  0  0  0  0  0  0  0  0  0  0
  -82.3047   34.0980   -0.1593 H   0  0  0  0  0  0  0  0  0  0  0  0
  -91.5907   30.2822   -2.9968 O   0  0  0  0  0  0  0  0  0  0  0  0
  -90.3760   30.7653   -2.5316 C   0  0  0  0  0  0  0  0  0  0  0  0
  -89.2600   30.5304   -3.3113 C   0  0  0  0  0  0  0  0  0  0  0  0
  -88.0414   30.9964   -2.8778 C   0  0  0  0  0  0  0  0  0  0  0  0
  -87.9269   31.6962   -1.6705 C   0  0  0  0  0  0  0  0  0  0  0  0
  -89.0554   31.9194   -0.9074 C   0  0  0  0  0  0  0  0  0  0  0  0
  -90.2770   31.4538   -1.3392 C   0  0  0  0  0  0  0  0  0  0  0  0
  -91.8475   29.3472   -2.7128 H   0  0  0  0  0  0  0  0  0  0  0  0
  -83.6393   30.0623    1.6135 C   0  0  0  0  0  0  0  0  0  0  0  0
  -82.5490   29.2435    1.6179 C   0  0  0  0  0  0  0  0  0  0  0  0
  -82.5134   28.0576    2.3502 C   0  0  0  0  0  0  0  0  0  0  0  0
  -83.6001   27.6925    3.0919 C   0  0  0  0  0  0  0  0  0  0  0  0
  -84.7197   28.4976    3.1099 C   0  0  0  0  0  0  0  0  0  0  0  0
  -84.7229   29.6723    2.3693 C   0  0  0  0  0  0  0  0  0  0  0  0
  -86.3327   30.1453    0.1397 N   0  0  0  0  0  0  0  0  0  0  0  0
  -86.1701   29.1120   -0.5728 O   0  0  0  0  0  0  0  0  0  0  0  0
 11 12  1  0  0  0
 12 13  2  0  0  0
 13 14  1  0  0  0
 14 15  2  0  0  0
 15 16  1  0  0  0
 16 17  2  0  0  0
 15  1  1  0  0  0
  1  2  2  0  0  0
  2  3  1  0  0  0
  3  4  2  0  0  0
  4  5  1  0  0  0
  5  6  1  0  0  0
  6  7  2  0  0  0
  7 19  1  0  0  0
 19 20  2  0  0  0
 20 21  1  0  0  0
 21 22  2  0  0  0
 22 23  1  0  0  0
 23 24  2  0  0  0
  7  8  1  0  0  0
  8  9  2  0  0  0
  9 25  1  0  0  0
 25 26  2  0  0  0
 17 12  1  0  0  0
  9  1  1  0  0  0
  8  4  1  0  0  0
 24 19  1  0  0  0
 11 18  1  0  0  0
  5 10  1  0  0  0
M  END
> <minimizedAffinity>
-9.15277

> <CNNscore>
0.8143075109

> <CNNaffinity>
6.4090242386

> <CNN_VS>
5.2189164162

> <CNNaffinity_variance>
0.1541584581

$$$$
[H]Oc1c([H])c([H])c(-c2c([H])nc3c(c2N=O)c(-c2c([H])c([H])c([H])c([H])c2[H])c([H])n3[H])c([H])c1[H]


 26 29  0  0  0  0  0  0  0  0999 V2000
  -85.7691   31.8027   -0.0888 C   0  0  0  0  0  0  0  0  0  0  0  0
  -85.0959   33.0036   -0.2390 C   0  0  0  0  0  0  0  0  0  0  0  0
  -85.5483   33.9717   -1.0458 N   0  0  0  0  0  0  0  0  0  0  0  0
  -86.6756   33.8337   -1.7521 C   0  0  0  0  0  0  0  0  0  0  0  0
  -87.3360   34.6621   -2.6071 N   0  0  0  0  0  0  0  0  0  0  0  0
  -88.4320   34.0374   -3.0305 C   0  0  0  0  0  0  0  0  0  0  0  0
  -88.5122   32.7511   -2.4448 C   0  0  0  0  0  0  0  0  0  0  0  0
  -87.3959   32.6488   -1.6445 C   0  0  0  0  0  0  0  0  0  0  0  0
  -86.9288   31.6314   -0.8024 C   0  0  0  0  0  0  0  0  0  0  0  0
  -86.9892   35.6129   -2.8481 H   0  0  0  0  0  0  0  0  0  0  0  0
  -84.0119   27.8595    3.4639 O   0  0  0  0  0  0  0  0  0  0  0  0
  -84.4305   28.8217    2.5561 C   0  0  0  0  0  0  0  0  0  0  0  0
  -85.0358   29.9538    3.0664 C   0  0  0  0  0  0  0  0  0  0  0  0
  -85.4619   30.9260    2.1926 C   0  0  0  0  0  0  0  0  0  0  0  0
  -85.2886   30.7776    0.8112 C   0  0  0  0  0  0  0  0  0  0  0  0
  -84.6811   29.6381    0.3234 C   0  0  0  0  0  0  0  0  0  0  0  0
  -84.2535   28.6630    1.1962 C   0  0  0  0  0  0  0  0  0  0  0  0
  -84.6789   27.1397    3.7042 H   0  0  0  0  0  0  0  0  0  0  0  0
  -89.5647   31.7967   -2.7263 C   0  0  0  0  0  0  0  0  0  0  0  0
  -89.7040   31.2698   -3.9762 C   0  0  0  0  0  0  0  0  0  0  0  0
  -90.7029   30.3480   -4.2867 C   0  0  0  0  0  0  0  0  0  0  0  0
  -91.5773   29.9514   -3.3159 C   0  0  0  0  0  0  0  0  0  0  0  0
  -91.4648   30.4648   -2.0408 C   0  0  0  0  0  0  0  0  0  0  0  0
  -90.4588   31.3812   -1.7643 C   0  0  0  0  0  0  0  0  0  0  0  0
  -87.6906   30.4265   -0.7154 N   0  0  0  0  0  0  0  0  0  0  0  0
  -87.4564   29.5098   -1.5559 O   0  0  0  0  0  0  0  0  0  0  0  0
 11 12  1  0  0  0
 12 13  2  0  0  0
 13 14  1  0  0  0
 14 15  2  0  0  0
 15 16  1  0  0  0
 16 17  2  0  0  0
 15  1  1  0  0  0
  1  2  2  0  0  0
  2  3  1  0  0  0
  3  4  2  0  0  0
  4  5  1  0  0  0
  5  6  1  0  0  0
  6  7  2  0  0  0
  7 19  1  0  0  0
 19 20  2  0  0  0
 20 21  1  0  0  0
 21 22  2  0  0  0
 22 23  1  0  0  0
 23 24  2  0  0  0
  7  8  1  0  0  0
  8  9  2  0  0  0
  9 25  1  0  0  0
 25 26  2  0  0  0
 17 12  1  0  0  0
  9  1  1  0  0  0
  8  4  1  0  0  0
 24 19  1  0  0  0
 11 18  1  0  0  0
  5 10  1  0  0  0
M  END
> <minimizedAffinity>
-7.01780

> <CNNscore>
0.5847775340

> <CNNaffinity>
6.2254862785

> <CNN_VS>
3.6405246258

> <CNNaffinity_variance>
0.1550386846

$$$$
[H]Oc1c([H])c([H])c(-c2c([H])nc3c(c2N=O)c(-c2c([H])c([H])c([H])c([H])c2[H])c([H])n3[H])c([H])c1[H]


 26 29  0  0  0  0  0  0  0  0999 V2000
  -86.0679   28.9727    0.9343 C   0  0  0  0  0  0  0  0  0  0  0  0
  -84.8249   28.9907    1.5446 C   0  0  0  0  0  0  0  0  0  0  0  0
  -83.9867   30.0262    1.4113 N   0  0  0  0  0  0  0  0  0  0  0  0
  -84.3024   31.1016    0.6815 C   0  0  0  0  0  0  0  0  0  0  0  0
  -83.6424   32.2621    0.4152 N   0  0  0  0  0  0  0  0  0  0  0  0
  -84.4183   33.0150   -0.3608 C   0  0  0  0  0  0  0  0  0  0  0  0
  -85.6354   32.3423   -0.6255 C   0  0  0  0  0  0  0  0  0  0  0  0
  -85.5371   31.1419    0.0425 C   0  0  0  0  0  0  0  0  0  0  0  0
  -86.4194   30.0621    0.1773 C   0  0  0  0  0  0  0  0  0  0  0  0
  -82.6922   32.4658    0.7865 H   0  0  0  0  0  0  0  0  0  0  0  0
  -89.6713   24.7626    1.6754 O   0  0  0  0  0  0  0  0  0  0  0  0
  -88.7626   25.7897    1.4644 C   0  0  0  0  0  0  0  0  0  0  0  0
  -88.6833   26.7742    2.4303 C   0  0  0  0  0  0  0  0  0  0  0  0
  -87.7924   27.8058    2.2505 C   0  0  0  0  0  0  0  0  0  0  0  0
  -86.9784   27.8632    1.1128 C   0  0  0  0  0  0  0  0  0  0  0  0
  -87.0744   26.8685    0.1605 C   0  0  0  0  0  0  0  0  0  0  0  0
  -87.9657   25.8343    0.3380 C   0  0  0  0  0  0  0  0  0  0  0  0
  -90.6048   24.8993    1.3139 H   0  0  0  0  0  0  0  0  0  0  0  0
  -86.6856   32.8703   -1.4717 C   0  0  0  0  0  0  0  0  0  0  0  0
  -86.4152   33.2519   -2.7526 C   0  0  0  0  0  0  0  0  0  0  0  0
  -87.3982   33.7635   -3.5986 C   0  0  0  0  0  0  0  0  0  0  0  0
  -88.6785   33.8918   -3.1417 C   0  0  0  0  0  0  0  0  0  0  0  0
  -88.9866   33.5154   -1.8512 C   0  0  0  0  0  0  0  0  0  0  0  0
  -87.9843   33.0095   -1.0339 C   0  0  0  0  0  0  0  0  0  0  0  0
  -87.6786   30.1338   -0.4927 N   0  0  0  0  0  0  0  0  0  0  0  0
  -87.7586   29.6652   -1.6656 O   0  0  0  0  0  0  0  0  0  0  0  0
 11 12  1  0  0  0
 12 13  2  0  0  0
 13 14  1  0  0  0
 14 15  2  0  0  0
 15 16  1  0  0  0
 16 17  2  0  0  0
 15  1  1  0  0  0
  1  2  2  0  0  0
  2  3  1  0  0  0
  3  4  2  0  0  0
  4  5  1  0  0  0
  5  6  1  0  0  0
  6  7  2  0  0  0
  7 19  1  0  0  0
 19 20  2  0  0  0
 20 21  1  0  0  0
 21 22  2  0  0  0
 22 23  1  0  0  0
 23 24  2  0  0  0
  7  8  1  0  0  0
  8  9  2  0  0  0
  9 25  1  0  0  0
 25 26  2  0  0  0
 17 12  1  0  0  0
  9  1  1  0  0  0
  8  4  1  0  0  0
 24 19  1  0  0  0
 11 18  1  0  0  0
  5 10  1  0  0  0
M  END
> <minimizedAffinity>
-8.31675

> <CNNscore>
0.4414420426

> <CNNaffinity>
6.1909952164

> <CNN_VS>
2.7329654694

> <CNNaffinity_variance>
0.1358661354

$$$$
[H]Oc1c([H])c([H])c(-c2c([H])nc3c(c2N=O)c(-c2c([H])c([H])c([H])c([H])c2[H])c([H])n3[H])c([H])c1[H]


 26 29  0  0  0  0  0  0  0  0999 V2000
  -87.3810   27.5581    1.0080 C   0  0  0  0  0  0  0  0  0  0  0  0
  -86.8626   26.5402    1.7909 C   0  0  0  0  0  0  0  0  0  0  0  0
  -85.6403   26.6169    2.3319 N   0  0  0  0  0  0  0  0  0  0  0  0
  -84.8510   27.6806    2.1469 C   0  0  0  0  0  0  0  0  0  0  0  0
  -83.6049   27.9943    2.5964 N   0  0  0  0  0  0  0  0  0  0  0  0
  -83.2824   29.1972    2.1275 C   0  0  0  0  0  0  0  0  0  0  0  0
  -84.3411   29.7084    1.3389 C   0  0  0  0  0  0  0  0  0  0  0  0
  -85.3155   28.7354    1.3683 C   0  0  0  0  0  0  0  0  0  0  0  0
  -86.5934   28.6623    0.7990 C   0  0  0  0  0  0  0  0  0  0  0  0
  -83.0494   27.3567    3.2024 H   0  0  0  0  0  0  0  0  0  0  0  0
  -92.5633   27.3673   -1.0817 O   0  0  0  0  0  0  0  0  0  0  0  0
  -91.2669   27.3912   -0.5876 C   0  0  0  0  0  0  0  0  0  0  0  0
  -91.0606   28.0295    0.6201 C   0  0  0  0  0  0  0  0  0  0  0  0
  -89.7871   28.0704    1.1365 C   0  0  0  0  0  0  0  0  0  0  0  0
  -88.7158   27.4786    0.4566 C   0  0  0  0  0  0  0  0  0  0  0  0
  -88.9451   26.8461   -0.7488 C   0  0  0  0  0  0  0  0  0  0  0  0
  -90.2194   26.8037   -1.2682 C   0  0  0  0  0  0  0  0  0  0  0  0
  -92.8368   28.1346   -1.6794 H   0  0  0  0  0  0  0  0  0  0  0  0
  -84.2961   30.9810    0.6487 C   0  0  0  0  0  0  0  0  0  0  0  0
  -83.1838   31.3504   -0.0483 C   0  0  0  0  0  0  0  0  0  0  0  0
  -83.1018   32.5658   -0.7265 C   0  0  0  0  0  0  0  0  0  0  0  0
  -84.1637   33.4238   -0.7000 C   0  0  0  0  0  0  0  0  0  0  0  0
  -85.3043   33.0814   -0.0044 C   0  0  0  0  0  0  0  0  0  0  0  0
  -85.3538   31.8633    0.6607 C   0  0  0  0  0  0  0  0  0  0  0  0
  -87.0400   29.7612    0.0036 N   0  0  0  0  0  0  0  0  0  0  0  0
  -86.9408   29.6671   -1.2546 O   0  0  0  0  0  0  0  0  0  0  0  0
 11 12  1  0  0  0
 12 13  2  0  0  0
 13 14  1  0  0  0
 14 15  2  0  0  0
 15 16  1  0  0  0
 16 17  2  0  0  0
 15  1  1  0  0  0
  1  2  2  0  0  0
  2  3  1  0  0  0
  3  4  2  0  0  0
  4  5  1  0  0  0
  5  6  1  0  0  0
  6  7  2  0  0  0
  7 19  1  0  0  0
 19 20  2  0  0  0
 20 21  1  0  0  0
 21 22  2  0  0  0
 22 23  1  0  0  0
 23 24  2  0  0  0
  7  8  1  0  0  0
  8  9  2  0  0  0
  9 25  1  0  0  0
 25 26  2  0  0  0
 17 12  1  0  0  0
  9  1  1  0  0  0
  8  4  1  0  0  0
 24 19  1  0  0  0
 11 18  1  0  0  0
  5 10  1  0  0  0
M  END
> <minimizedAffinity>
-8.88313

> <CNNscore>
0.4242025614

> <CNNaffinity>
6.1707201004

> <CNN_VS>
2.6176352501

> <CNNaffinity_variance>
0.0972630233

$$$$
[H]Oc1c([H])c([H])c(-c2c([H])nc3c(c2N=O)c(-c2c([H])c([H])c([H])c([H])c2[H])c([H])n3[H])c([H])c1[H]


 26 29  0  0  0  0  0  0  0  0999 V2000
  -85.7522   29.0776    0.9939 C   0  0  0  0  0  0  0  0  0  0  0  0
  -85.2497   28.1618    1.9031 C   0  0  0  0  0  0  0  0  0  0  0  0
  -85.9231   27.0535    2.2359 N   0  0  0  0  0  0  0  0  0  0  0  0
  -87.1188   26.7681    1.7093 C   0  0  0  0  0  0  0  0  0  0  0  0
  -87.9717   25.7194    1.8709 N   0  0  0  0  0  0  0  0  0  0  0  0
  -89.0313   25.9190    1.0910 C   0  0  0  0  0  0  0  0  0  0  0  0
  -88.8888   27.1373    0.3843 C   0  0  0  0  0  0  0  0  0  0  0  0
  -87.6771   27.6507    0.7907 C   0  0  0  0  0  0  0  0  0  0  0  0
  -86.9784   28.8125    0.4376 C   0  0  0  0  0  0  0  0  0  0  0  0
  -87.7705   24.9255    2.5123 H   0  0  0  0  0  0  0  0  0  0  0  0
  -82.9209   33.6961   -0.3888 O   0  0  0  0  0  0  0  0  0  0  0  0
  -83.5946   32.5307   -0.0526 C   0  0  0  0  0  0  0  0  0  0  0  0
  -84.9621   32.6173    0.1232 C   0  0  0  0  0  0  0  0  0  0  0  0
  -85.6586   31.4799    0.4569 C   0  0  0  0  0  0  0  0  0  0  0  0
  -85.0006   30.2544    0.6169 C   0  0  0  0  0  0  0  0  0  0  0  0
  -83.6335   30.1911    0.4364 C   0  0  0  0  0  0  0  0  0  0  0  0
  -82.9336   31.3286    0.1022 C   0  0  0  0  0  0  0  0  0  0  0  0
  -82.5759   34.2592    0.3758 H   0  0  0  0  0  0  0  0  0  0  0  0
  -89.8856   27.6701   -0.5215 C   0  0  0  0  0  0  0  0  0  0  0  0
  -89.9308   27.2569   -1.8202 C   0  0  0  0  0  0  0  0  0  0  0  0
  -90.8751   27.7447   -2.7225 C   0  0  0  0  0  0  0  0  0  0  0  0
  -91.7908   28.6672   -2.3046 C   0  0  0  0  0  0  0  0  0  0  0  0
  -91.7733   29.1069   -0.9975 C   0  0  0  0  0  0  0  0  0  0  0  0
  -90.8195   28.6012   -0.1239 C   0  0  0  0  0  0  0  0  0  0  0  0
  -87.5797   29.6989   -0.5070 N   0  0  0  0  0  0  0  0  0  0  0  0
  -87.3358   29.5175   -1.7356 O   0  0  0  0  0  0  0  0  0  0  0  0
 11 12  1  0  0  0
 12 13  2  0  0  0
 13 14  1  0  0  0
 14 15  2  0  0  0
 15 16  1  0  0  0
 16 17  2  0  0  0
 15  1  1  0  0  0
  1  2  2  0  0  0
  2  3  1  0  0  0
  3  4  2  0  0  0
  4  5  1  0  0  0
  5  6  1  0  0  0
  6  7  2  0  0  0
  7 19  1  0  0  0
 19 20  2  0  0  0
 20 21  1  0  0  0
 21 22  2  0  0  0
 22 23  1  0  0  0
 23 24  2  0  0  0
  7  8  1  0  0  0
  8  9  2  0  0  0
  9 25  1  0  0  0
 25 26  2  0  0  0
 17 12  1  0  0  0
  9  1  1  0  0  0
  8  4  1  0  0  0
 24 19  1  0  0  0
 11 18  1  0  0  0
  5 10  1  0  0  0
M  END
> <minimizedAffinity>
-8.60625

> <CNNscore>
0.3912164569

> <CNNaffinity>
6.0696997643

> <CNN_VS>
2.3745665550

> <CNNaffinity_variance>
0.0959066749

$$$$
[H]Oc1c([H])c([H])c(-c2c([H])nc3c(c2N=O)c(-c2c([H])c([H])c([H])c([H])c2[H])c([H])n3[H])c([H])c1[H]


 26 29  0  0  0  0  0  0  0  0999 V2000
  -86.0494   31.7642   -0.1629 C   0  0  0  0  0  0  0  0  0  0  0  0
  -84.8227   32.1846    0.3233 C   0  0  0  0  0  0  0  0  0  0  0  0
  -84.0789   31.4140    1.1269 N   0  0  0  0  0  0  0  0  0  0  0  0
  -84.4784   30.1952    1.5055 C   0  0  0  0  0  0  0  0  0  0  0  0
  -83.9050   29.2364    2.2835 N   0  0  0  0  0  0  0  0  0  0  0  0
  -84.7245   28.1890    2.3273 C   0  0  0  0  0  0  0  0  0  0  0  0
  -85.8837   28.4495    1.5575 C   0  0  0  0  0  0  0  0  0  0  0  0
  -85.7030   29.7174    1.0509 C   0  0  0  0  0  0  0  0  0  0  0  0
  -86.4867   30.5179    0.2098 C   0  0  0  0  0  0  0  0  0  0  0  0
  -82.9785   29.3631    2.7394 H   0  0  0  0  0  0  0  0  0  0  0  0
  -88.9877   34.9269   -3.7157 O   0  0  0  0  0  0  0  0  0  0  0  0
  -88.2871   34.1395   -2.8133 C   0  0  0  0  0  0  0  0  0  0  0  0
  -86.9191   34.0465   -2.9818 C   0  0  0  0  0  0  0  0  0  0  0  0
  -86.1964   33.2737   -2.1040 C   0  0  0  0  0  0  0  0  0  0  0  0
  -86.8285   32.5918   -1.0573 C   0  0  0  0  0  0  0  0  0  0  0  0
  -88.1967   32.6990   -0.9078 C   0  0  0  0  0  0  0  0  0  0  0  0
  -88.9228   33.4721   -1.7855 C   0  0  0  0  0  0  0  0  0  0  0  0
  -89.3322   34.4689   -4.5477 H   0  0  0  0  0  0  0  0  0  0  0  0
  -86.9940   27.5286    1.4276 C   0  0  0  0  0  0  0  0  0  0  0  0
  -88.0441   27.5848    2.2957 C   0  0  0  0  0  0  0  0  0  0  0  0
  -89.1316   26.7173    2.2033 C   0  0  0  0  0  0  0  0  0  0  0  0
  -89.1585   25.7754    1.2152 C   0  0  0  0  0  0  0  0  0  0  0  0
  -88.1126   25.6910    0.3201 C   0  0  0  0  0  0  0  0  0  0  0  0
  -87.0442   26.5700    0.4396 C   0  0  0  0  0  0  0  0  0  0  0  0
  -87.7396   29.9989   -0.2382 N   0  0  0  0  0  0  0  0  0  0  0  0
  -87.7671   29.3690   -1.3356 O   0  0  0  0  0  0  0  0  0  0  0  0
 11 12  1  0  0  0
 12 13  2  0  0  0
 13 14  1  0  0  0
 14 15  2  0  0  0
 15 16  1  0  0  0
 16 17  2  0  0  0
 15  1  1  0  0  0
  1  2  2  0  0  0
  2  3  1  0  0  0
  3  4  2  0  0  0
  4  5  1  0  0  0
  5  6  1  0  0  0
  6  7  2  0  0  0
  7 19  1  0  0  0
 19 20  2  0  0  0
 20 21  1  0  0  0
 21 22  2  0  0  0
 22 23  1  0  0  0
 23 24  2  0  0  0
  7  8  1  0  0  0
  8  9  2  0  0  0
  9 25  1  0  0  0
 25 26  2  0  0  0
 17 12  1  0  0  0
  9  1  1  0  0  0
  8  4  1  0  0  0
 24 19  1  0  0  0
 11 18  1  0  0  0
  5 10  1  0  0  0
M  END
> <minimizedAffinity>
-8.50224

> <CNNscore>
0.2670253515

> <CNNaffinity>
6.0456171036

> <CNN_VS>
1.6143330336

> <CNNaffinity_variance>
0.0921403170

$$$$
[H]Oc1c([H])c([H])c(-c2c([H])nc3c(c2N=O)c(-c2c([H])c([H])c([H])c([H])c2[H])c([H])n3[H])c([H])c1[H]


 26 29  0  0  0  0  0  0  0  0999 V2000
  -86.0472   31.7625   -0.1866 C   0  0  0  0  0  0  0  0  0  0  0  0
  -84.8223   32.1851    0.3023 C   0  0  0  0  0  0  0  0  0  0  0  0
  -84.0858   31.4218    1.1194 N   0  0  0  0  0  0  0  0  0  0  0  0
  -84.4911   30.2085    1.5095 C   0  0  0  0  0  0  0  0  0  0  0  0
  -83.9252   29.2573    2.3021 N   0  0  0  0  0  0  0  0  0  0  0  0
  -84.7479   28.2127    2.3529 C   0  0  0  0  0  0  0  0  0  0  0  0
  -85.9015   28.4674    1.5729 C   0  0  0  0  0  0  0  0  0  0  0  0
  -85.7142   29.7289    1.0528 C   0  0  0  0  0  0  0  0  0  0  0  0
  -86.4904   30.5218    0.1977 C   0  0  0  0  0  0  0  0  0  0  0  0
  -83.0012   29.3866    2.7623 H   0  0  0  0  0  0  0  0  0  0  0  0
  -89.1026   34.9636   -3.6035 O   0  0  0  0  0  0  0  0  0  0  0  0
  -88.3166   34.1733   -2.7772 C   0  0  0  0  0  0  0  0  0  0  0  0
  -88.9565   33.4778   -1.7696 C   0  0  0  0  0  0  0  0  0  0  0  0
  -88.2053   32.6857   -0.9337 C   0  0  0  0  0  0  0  0  0  0  0  0
  -86.8185   32.5818   -1.0953 C   0  0  0  0  0  0  0  0  0  0  0  0
  -86.2001   33.2858   -2.1090 C   0  0  0  0  0  0  0  0  0  0  0  0
  -86.9499   34.0797   -2.9475 C   0  0  0  0  0  0  0  0  0  0  0  0
  -89.2431   35.9224   -3.3173 H   0  0  0  0  0  0  0  0  0  0  0  0
  -87.0137   27.5482    1.4467 C   0  0  0  0  0  0  0  0  0  0  0  0
  -87.0224   26.6046    0.4625 C   0  0  0  0  0  0  0  0  0  0  0  0
  -88.0732   25.7012    0.3086 C   0  0  0  0  0  0  0  0  0  0  0  0
  -89.1350   25.7525    1.1655 C   0  0  0  0  0  0  0  0  0  0  0  0
  -89.1583   26.6946    2.1724 C   0  0  0  0  0  0  0  0  0  0  0  0
  -88.0958   27.5800    2.2984 C   0  0  0  0  0  0  0  0  0  0  0  0
  -87.7419   30.0011   -0.2521 N   0  0  0  0  0  0  0  0  0  0  0  0
  -87.7661   29.3670   -1.3471 O   0  0  0  0  0  0  0  0  0  0  0  0
 11 12  1  0  0  0
 12 13  2  0  0  0
 13 14  1  0  0  0
 14 15  2  0  0  0
 15 16  1  0  0  0
 16 17  2  0  0  0
 15  1  1  0  0  0
  1  2  2  0  0  0
  2  3  1  0  0  0
  3  4  2  0  0  0
  4  5  1  0  0  0
  5  6  1  0  0  0
  6  7  2  0  0  0
  7 19  1  0  0  0
 19 20  2  0  0  0
 20 21  1  0  0  0
 21 22  2  0  0  0
 22 23  1  0  0  0
 23 24  2  0  0  0
  7  8  1  0  0  0
  8  9  2  0  0  0
  9 25  1  0  0  0
 25 26  2  0  0  0
 17 12  1  0  0  0
  9  1  1  0  0  0
  8  4  1  0  0  0
 24 19  1  0  0  0
 11 18  1  0  0  0
  5 10  1  0  0  0
M  END
> <minimizedAffinity>
-8.48976

> <CNNscore>
0.2667973936

> <CNNaffinity>
6.0629625320

> <CNN_VS>
1.6175825596

> <CNNaffinity_variance>
0.0812641233

$$$$
[H]Oc1c([H])c([H])c(-c2c([H])nc3c(c2N=O)c(-c2c([H])c([H])c([H])c([H])c2[H])c([H])n3[H])c([H])c1[H]


 26 29  0  0  0  0  0  0  0  0999 V2000
  -88.5205   30.8165   -1.1568 C   0  0  0  0  0  0  0  0  0  0  0  0
  -87.2665   30.9539   -0.5853 C   0  0  0  0  0  0  0  0  0  0  0  0
  -86.4572   31.9751   -0.8933 N   0  0  0  0  0  0  0  0  0  0  0  0
  -86.8138   32.9199   -1.7701 C   0  0  0  0  0  0  0  0  0  0  0  0
  -86.1883   34.0405   -2.2244 N   0  0  0  0  0  0  0  0  0  0  0  0
  -86.9977   34.6497   -3.0872 C   0  0  0  0  0  0  0  0  0  0  0  0
  -88.2028   33.9186   -3.2186 C   0  0  0  0  0  0  0  0  0  0  0  0
  -88.0615   32.8360   -2.3790 C   0  0  0  0  0  0  0  0  0  0  0  0
  -88.9138   31.7704   -2.0617 C   0  0  0  0  0  0  0  0  0  0  0  0
  -85.2363   34.3187   -1.9104 H   0  0  0  0  0  0  0  0  0  0  0  0
  -92.0095   26.6907    0.2793 O   0  0  0  0  0  0  0  0  0  0  0  0
  -91.1259   27.6918   -0.0976 C   0  0  0  0  0  0  0  0  0  0  0  0
  -91.1815   28.8823    0.6009 C   0  0  0  0  0  0  0  0  0  0  0  0
  -90.3189   29.8942    0.2514 C   0  0  0  0  0  0  0  0  0  0  0  0
  -89.3994   29.7276   -0.7912 C   0  0  0  0  0  0  0  0  0  0  0  0
  -89.3613   28.5294   -1.4756 C   0  0  0  0  0  0  0  0  0  0  0  0
  -90.2241   27.5145   -1.1277 C   0  0  0  0  0  0  0  0  0  0  0  0
  -92.9074   26.6780   -0.1837 H   0  0  0  0  0  0  0  0  0  0  0  0
  -89.2822   34.2890   -4.1104 C   0  0  0  0  0  0  0  0  0  0  0  0
  -89.3595   33.7537   -5.3621 C   0  0  0  0  0  0  0  0  0  0  0  0
  -90.3830   34.0837   -6.2494 C   0  0  0  0  0  0  0  0  0  0  0  0
  -91.3466   34.9713   -5.8645 C   0  0  0  0  0  0  0  0  0  0  0  0
  -91.2986   35.5316   -4.6053 C   0  0  0  0  0  0  0  0  0  0  0  0
  -90.2656   35.1819   -3.7455 C   0  0  0  0  0  0  0  0  0  0  0  0
  -90.1873   31.7122   -2.7054 N   0  0  0  0  0  0  0  0  0  0  0  0
  -90.3059   30.9782   -3.7295 O   0  0  0  0  0  0  0  0  0  0  0  0
 11 12  1  0  0  0
 12 13  2  0  0  0
 13 14  1  0  0  0
 14 15  2  0  0  0
 15 16  1  0  0  0
 16 17  2  0  0  0
 15  1  1  0  0  0
  1  2  2  0  0  0
  2  3  1  0  0  0
  3  4  2  0  0  0
  4  5  1  0  0  0
  5  6  1  0  0  0
  6  7  2  0  0  0
  7 19  1  0  0  0
 19 20  2  0  0  0
 20 21  1  0  0  0
 21 22  2  0  0  0
 22 23  1  0  0  0
 23 24  2  0  0  0
  7  8  1  0  0  0
  8  9  2  0  0  0
  9 25  1  0  0  0
 25 26  2  0  0  0
 17 12  1  0  0  0
  9  1  1  0  0  0
  8  4  1  0  0  0
 24 19  1  0  0  0
 11 18  1  0  0  0
  5 10  1  0  0  0
M  END
> <minimizedAffinity>
-6.31757

> <CNNscore>
0.1837634742

> <CNNaffinity>
5.2485938072

> <CNN_VS>
0.9644998312

> <CNNaffinity_variance>
0.1554908454

$$$$
[H]OC([H])([H])[C@@]1(O[H])C([H])([H])[C@@]2([H])O[C@]1(C([H])([H])[H])n1c3c([H])c([H])c([H])c([H])c3c3c4c(c5c6c([H])c([H])c([H])c([H])c6n2c5c31)C(=O)N([H])C([H])([H])C4([H])[H]


 37 44  0  0  0  0  0  0  0  0999 V2000
  -90.8158   28.4910    0.3069 C   0  0  0  0  0  0  0  0  0  0  0  0
  -89.8925   29.2254   -0.6007 C   0  0  0  0  0  0  0  0  0  0  0  0
  -90.3662   30.5558   -0.7226 O   0  0  0  0  0  0  0  0  0  0  0  0
  -89.9808   31.0890   -1.9083 C   0  0  0  0  0  0  0  0  0  0  0  0
  -89.5208   29.9804   -2.8395 C   0  0  0  0  0  0  0  0  0  0  0  0
  -90.0415   28.7606   -2.0032 C   0  0  0  0  0  0  0  0  0  0  0  0
  -89.1818   27.6912   -2.2274 O   0  0  0  0  0  0  0  0  0  0  0  0
  -88.7572   31.8818   -1.7392 N   0  0  0  0  0  0  0  0  0  0  0  0
  -88.4326   33.0495   -2.2537 C   0  0  0  0  0  0  0  0  0  0  0  0
  -89.2347   33.8604   -3.0577 C   0  0  0  0  0  0  0  0  0  0  0  0
  -88.7234   35.0605   -3.4927 C   0  0  0  0  0  0  0  0  0  0  0  0
  -87.4516   35.4221   -3.1263 C   0  0  0  0  0  0  0  0  0  0  0  0
  -86.6756   34.5859   -2.3197 C   0  0  0  0  0  0  0  0  0  0  0  0
  -87.1586   33.4044   -1.8839 C   0  0  0  0  0  0  0  0  0  0  0  0
  -86.6834   32.3971   -1.1054 C   0  0  0  0  0  0  0  0  0  0  0  0
  -85.5027   32.1060   -0.4516 C   0  0  0  0  0  0  0  0  0  0  0  0
  -84.3836   33.0029   -0.5870 C   0  0  0  0  0  0  0  0  0  0  0  0
  -84.3115   34.0774   -1.1634 O   0  0  0  0  0  0  0  0  0  0  0  0
  -83.1439   32.5876    0.0458 N   0  0  0  0  0  0  0  0  0  0  0  0
  -83.2600   31.8146    1.2300 C   0  0  0  0  0  0  0  0  0  0  0  0
  -84.1732   30.6293    1.0296 C   0  0  0  0  0  0  0  0  0  0  0  0
  -85.3838   30.9004    0.2580 C   0  0  0  0  0  0  0  0  0  0  0  0
  -86.4174   29.9763    0.3229 C   0  0  0  0  0  0  0  0  0  0  0  0
  -86.6296   28.7201    0.8824 C   0  0  0  0  0  0  0  0  0  0  0  0
  -85.7635   27.9448    1.6082 C   0  0  0  0  0  0  0  0  0  0  0  0
  -86.1816   26.6977    2.0415 C   0  0  0  0  0  0  0  0  0  0  0  0
  -87.4285   26.2557    1.7478 C   0  0  0  0  0  0  0  0  0  0  0  0
  -88.3090   27.0219    1.0190 C   0  0  0  0  0  0  0  0  0  0  0  0
  -87.9189   28.2650    0.5788 C   0  0  0  0  0  0  0  0  0  0  0  0
  -88.4950   29.2565   -0.1703 N   0  0  0  0  0  0  0  0  0  0  0  0
  -87.5872   30.2614   -0.3225 C   0  0  0  0  0  0  0  0  0  0  0  0
  -87.7154   31.4477   -1.0252 C   0  0  0  0  0  0  0  0  0  0  0  0
  -89.0028   27.5389   -3.1861 H   0  0  0  0  0  0  0  0  0  0  0  0
  -82.2130   32.8521   -0.3615 H   0  0  0  0  0  0  0  0  0  0  0  0
  -91.3908   28.5664   -2.5796 C   0  0  0  0  0  0  0  0  0  0  0  0
  -91.4806   28.4969   -3.9604 O   0  0  0  0  0  0  0  0  0  0  0  0
  -92.3364   28.8135   -4.3047 H   0  0  0  0  0  0  0  0  0  0  0  0
  2  1  1  0  0  0
  2  3  1  0  0  0
  3  4  1  0  0  0
  4  5  1  0  0  0
  5  6  1  0  0  0
  6  7  1  0  0  0
  6 35  1  0  0  0
 35 36  1  0  0  0
  4  8  1  0  0  0
  8  9  1  0  0  0
  9 10  2  0  0  0
 10 11  1  0  0  0
 11 12  2  0  0  0
 12 13  1  0  0  0
 13 14  2  0  0  0
 14 15  1  0  0  0
 15 16  2  0  0  0
 16 17  1  0  0  0
 17 18  2  0  0  0
 17 19  1  0  0  0
 19 20  1  0  0  0
 20 21  1  0  0  0
 21 22  1  0  0  0
 22 23  2  0  0  0
 23 24  1  0  0  0
 24 25  2  0  0  0
 25 26  1  0  0  0
 26 27  2  0  0  0
 27 28  1  0  0  0
 28 29  2  0  0  0
 29 30  1  0  0  0
 30 31  1  0  0  0
 31 32  2  0  0  0
  6  2  1  0  0  0
 32  8  1  0  0  0
 30  2  1  0  0  0
 14  9  1  0  0  0
 32 15  1  0  0  0
 22 16  1  0  0  0
 31 23  1  0  0  0
 29 24  1  0  0  0
  7 33  1  0  0  0
 36 37  1  0  0  0
 19 34  1  0  0  0
M  END
> <minimizedAffinity>
-11.78609

> <CNNscore>
0.6648129821

> <CNNaffinity>
6.6853179932

> <CNN_VS>
4.4444861412

> <CNNaffinity_variance>
0.1889725477

$$$$
[H]OC([H])([H])[C@@]1(O[H])C([H])([H])[C@@]2([H])O[C@]1(C([H])([H])[H])n1c3c([H])c([H])c([H])c([H])c3c3c4c(c5c6c([H])c([H])c([H])c([H])c6n2c5c31)C(=O)N([H])C([H])([H])C4([H])[H]


 37 44  0  0  0  0  0  0  0  0999 V2000
  -89.9860   34.0019   -2.7956 C   0  0  0  0  0  0  0  0  0  0  0  0
  -88.8228   33.0935   -2.6032 C   0  0  0  0  0  0  0  0  0  0  0  0
  -87.8850   33.7548   -1.7711 O   0  0  0  0  0  0  0  0  0  0  0  0
  -86.6309   33.3012   -2.0170 C   0  0  0  0  0  0  0  0  0  0  0  0
  -86.6126   32.5442   -3.3339 C   0  0  0  0  0  0  0  0  0  0  0  0
  -88.0294   32.9708   -3.8526 C   0  0  0  0  0  0  0  0  0  0  0  0
  -88.5358   31.9270   -4.6186 O   0  0  0  0  0  0  0  0  0  0  0  0
  -86.2661   32.2569   -1.0522 N   0  0  0  0  0  0  0  0  0  0  0  0
  -85.1307   32.0578   -0.4161 C   0  0  0  0  0  0  0  0  0  0  0  0
  -83.9914   32.8620   -0.4682 C   0  0  0  0  0  0  0  0  0  0  0  0
  -82.8980   32.4966    0.2812 C   0  0  0  0  0  0  0  0  0  0  0  0
  -82.9589   31.3627    1.0513 C   0  0  0  0  0  0  0  0  0  0  0  0
  -84.1160   30.5802    1.0803 C   0  0  0  0  0  0  0  0  0  0  0  0
  -85.1985   30.9212    0.3516 C   0  0  0  0  0  0  0  0  0  0  0  0
  -86.4407   30.4011    0.1698 C   0  0  0  0  0  0  0  0  0  0  0  0
  -87.1365   29.2902    0.6034 C   0  0  0  0  0  0  0  0  0  0  0  0
  -86.4696   28.3230    1.4370 C   0  0  0  0  0  0  0  0  0  0  0  0
  -85.3439   28.3471    1.9107 O   0  0  0  0  0  0  0  0  0  0  0  0
  -87.2280   27.1316    1.7761 N   0  0  0  0  0  0  0  0  0  0  0  0
  -88.6336   27.2830    1.8967 C   0  0  0  0  0  0  0  0  0  0  0  0
  -89.2238   27.9561    0.6810 C   0  0  0  0  0  0  0  0  0  0  0  0
  -88.4491   29.0767    0.1531 C   0  0  0  0  0  0  0  0  0  0  0  0
  -89.0791   29.9462   -0.7264 C   0  0  0  0  0  0  0  0  0  0  0  0
  -90.3059   30.0275   -1.3779 C   0  0  0  0  0  0  0  0  0  0  0  0
  -91.3623   29.1557   -1.3335 C   0  0  0  0  0  0  0  0  0  0  0  0
  -92.4846   29.4222   -2.0997 C   0  0  0  0  0  0  0  0  0  0  0  0
  -92.5310   30.5288   -2.8806 C   0  0  0  0  0  0  0  0  0  0  0  0
  -91.4779   31.4128   -2.9369 C   0  0  0  0  0  0  0  0  0  0  0  0
  -90.3526   31.1720   -2.1838 C   0  0  0  0  0  0  0  0  0  0  0  0
  -89.1428   31.7921   -2.0173 N   0  0  0  0  0  0  0  0  0  0  0  0
  -88.3935   31.0466   -1.1571 C   0  0  0  0  0  0  0  0  0  0  0  0
  -87.0985   31.2671   -0.7192 C   0  0  0  0  0  0  0  0  0  0  0  0
  -87.8902   31.5953   -5.2877 H   0  0  0  0  0  0  0  0  0  0  0  0
  -86.7494   26.2086    1.9229 H   0  0  0  0  0  0  0  0  0  0  0  0
  -87.6996   34.1786   -4.6420 C   0  0  0  0  0  0  0  0  0  0  0  0
  -86.5825   34.8992   -4.2516 O   0  0  0  0  0  0  0  0  0  0  0  0
  -86.6476   35.8495   -4.4611 H   0  0  0  0  0  0  0  0  0  0  0  0
  2  1  1  0  0  0
  2  3  1  0  0  0
  3  4  1  0  0  0
  4  5  1  0  0  0
  5  6  1  0  0  0
  6  7  1  0  0  0
  6 35  1  0  0  0
 35 36  1  0  0  0
  4  8  1  0  0  0
  8  9  1  0  0  0
  9 10  2  0  0  0
 10 11  1  0  0  0
 11 12  2  0  0  0
 12 13  1  0  0  0
 13 14  2  0  0  0
 14 15  1  0  0  0
 15 16  2  0  0  0
 16 17  1  0  0  0
 17 18  2  0  0  0
 17 19  1  0  0  0
 19 20  1  0  0  0
 20 21  1  0  0  0
 21 22  1  0  0  0
 22 23  2  0  0  0
 23 24  1  0  0  0
 24 25  2  0  0  0
 25 26  1  0  0  0
 26 27  2  0  0  0
 27 28  1  0  0  0
 28 29  2  0  0  0
 29 30  1  0  0  0
 30 31  1  0  0  0
 31 32  2  0  0  0
  6  2  1  0  0  0
 32  8  1  0  0  0
 30  2  1  0  0  0
 14  9  1  0  0  0
 32 15  1  0  0  0
 22 16  1  0  0  0
 31 23  1  0  0  0
 29 24  1  0  0  0
  7 33  1  0  0  0
 36 37  1  0  0  0
 19 34  1  0  0  0
M  END
> <minimizedAffinity>
-10.95794

> <CNNscore>
0.5788937807

> <CNNaffinity>
6.6715383530

> <CNN_VS>
3.8621120453

> <CNNaffinity_variance>
0.1085972041

$$$$
[H]OC([H])([H])[C@@]1(O[H])C([H])([H])[C@@]2([H])O[C@]1(C([H])([H])[H])n1c3c([H])c([H])c([H])c([H])c3c3c4c(c5c6c([H])c([H])c([H])c([H])c6n2c5c31)C(=O)N([H])C([H])([H])C4([H])[H]


 37 44  0  0  0  0  0  0  0  0999 V2000
  -88.1079   26.7941    2.5568 C   0  0  0  0  0  0  0  0  0  0  0  0
  -88.1573   27.3971    1.1969 C   0  0  0  0  0  0  0  0  0  0  0  0
  -89.4125   28.0389    1.0489 O   0  0  0  0  0  0  0  0  0  0  0  0
  -89.7696   28.0853   -0.2585 C   0  0  0  0  0  0  0  0  0  0  0  0
  -88.9134   27.1154   -1.0548 C   0  0  0  0  0  0  0  0  0  0  0  0
  -88.2704   26.3480    0.1519 C   0  0  0  0  0  0  0  0  0  0  0  0
  -86.9974   25.9406   -0.2308 O   0  0  0  0  0  0  0  0  0  0  0  0
  -89.4008   29.3797   -0.8440 N   0  0  0  0  0  0  0  0  0  0  0  0
  -90.0735   30.1519   -1.6714 C   0  0  0  0  0  0  0  0  0  0  0  0
  -91.3671   29.9377   -2.1493 C   0  0  0  0  0  0  0  0  0  0  0  0
  -91.9118   30.8686   -3.0021 C   0  0  0  0  0  0  0  0  0  0  0  0
  -91.1745   31.9707   -3.3545 C   0  0  0  0  0  0  0  0  0  0  0  0
  -89.8817   32.1542   -2.8572 C   0  0  0  0  0  0  0  0  0  0  0  0
  -89.3294   31.2520   -2.0205 C   0  0  0  0  0  0  0  0  0  0  0  0
  -88.1403   31.1403   -1.3724 C   0  0  0  0  0  0  0  0  0  0  0  0
  -86.9632   31.8588   -1.3049 C   0  0  0  0  0  0  0  0  0  0  0  0
  -86.8074   33.0333   -2.1242 C   0  0  0  0  0  0  0  0  0  0  0  0
  -87.6098   33.5763   -2.8681 O   0  0  0  0  0  0  0  0  0  0  0  0
  -85.5102   33.6850   -2.0775 N   0  0  0  0  0  0  0  0  0  0  0  0
  -84.8026   33.6102   -0.8499 C   0  0  0  0  0  0  0  0  0  0  0  0
  -84.6962   32.1867   -0.3586 C   0  0  0  0  0  0  0  0  0  0  0  0
  -85.9078   31.3844   -0.5097 C   0  0  0  0  0  0  0  0  0  0  0  0
  -86.0010   30.2040    0.2144 C   0  0  0  0  0  0  0  0  0  0  0  0
  -85.1793   29.4489    1.0456 C   0  0  0  0  0  0  0  0  0  0  0  0
  -83.8824   29.6870    1.4190 C   0  0  0  0  0  0  0  0  0  0  0  0
  -83.2408   28.7714    2.2362 C   0  0  0  0  0  0  0  0  0  0  0  0
  -83.8901   27.6583    2.6555 C   0  0  0  0  0  0  0  0  0  0  0  0
  -85.1916   27.4046    2.2880 C   0  0  0  0  0  0  0  0  0  0  0  0
  -85.8519   28.2994    1.4788 C   0  0  0  0  0  0  0  0  0  0  0  0
  -87.0948   28.3594    0.9064 N   0  0  0  0  0  0  0  0  0  0  0  0
  -87.1645   29.4908    0.1501 C   0  0  0  0  0  0  0  0  0  0  0  0
  -88.2119   29.9495   -0.6309 C   0  0  0  0  0  0  0  0  0  0  0  0
  -86.9878   25.4910   -1.1096 H   0  0  0  0  0  0  0  0  0  0  0  0
  -85.1246   34.1843   -2.9169 H   0  0  0  0  0  0  0  0  0  0  0  0
  -89.2227   25.2285    0.3265 C   0  0  0  0  0  0  0  0  0  0  0  0
  -88.8196   23.9834   -0.1280 O   0  0  0  0  0  0  0  0  0  0  0  0
  -89.5638   23.4189   -0.4084 H   0  0  0  0  0  0  0  0  0  0  0  0
  2  1  1  0  0  0
  2  3  1  0  0  0
  3  4  1  0  0  0
  4  5  1  0  0  0
  5  6  1  0  0  0
  6  7  1  0  0  0
  6 35  1  0  0  0
 35 36  1  0  0  0
  4  8  1  0  0  0
  8  9  1  0  0  0
  9 10  2  0  0  0
 10 11  1  0  0  0
 11 12  2  0  0  0
 12 13  1  0  0  0
 13 14  2  0  0  0
 14 15  1  0  0  0
 15 16  2  0  0  0
 16 17  1  0  0  0
 17 18  2  0  0  0
 17 19  1  0  0  0
 19 20  1  0  0  0
 20 21  1  0  0  0
 21 22  1  0  0  0
 22 23  2  0  0  0
 23 24  1  0  0  0
 24 25  2  0  0  0
 25 26  1  0  0  0
 26 27  2  0  0  0
 27 28  1  0  0  0
 28 29  2  0  0  0
 29 30  1  0  0  0
 30 31  1  0  0  0
 31 32  2  0  0  0
  6  2  1  0  0  0
 32  8  1  0  0  0
 30  2  1  0  0  0
 14  9  1  0  0  0
 32 15  1  0  0  0
 22 16  1  0  0  0
 31 23  1  0  0  0
 29 24  1  0  0  0
  7 33  1  0  0  0
 36 37  1  0  0  0
 19 34  1  0  0  0
M  END
> <minimizedAffinity>
-12.39732

> <CNNscore>
0.4059796333

> <CNNaffinity>
6.5153722763

> <CNN_VS>
2.6451084614

> <CNNaffinity_variance>
0.3295235038

$$$$
[H]OC([H])([H])[C@@]1(O[H])C([H])([H])[C@@]2([H])O[C@]1(C([H])([H])[H])n1c3c([H])c([H])c([H])c([H])c3c3c4c(c5c6c([H])c([H])c([H])c([H])c6n2c5c31)C(=O)N([H])C([H])([H])C4([H])[H]


 37 44  0  0  0  0  0  0  0  0999 V2000
  -90.0265   26.0178   -0.8855 C   0  0  0  0  0  0  0  0  0  0  0  0
  -89.2242   26.9058   -0.0006 C   0  0  0  0  0  0  0  0  0  0  0  0
  -87.8975   26.4076    0.0314 O   0  0  0  0  0  0  0  0  0  0  0  0
  -87.2893   26.7542    1.1928 C   0  0  0  0  0  0  0  0  0  0  0  0
  -88.3333   27.2086    2.1984 C   0  0  0  0  0  0  0  0  0  0  0  0
  -89.6089   26.7291    1.4228 C   0  0  0  0  0  0  0  0  0  0  0  0
  -90.6479   27.6001    1.7303 O   0  0  0  0  0  0  0  0  0  0  0  0
  -86.4861   27.9687    1.0071 N   0  0  0  0  0  0  0  0  0  0  0  0
  -85.2848   28.2611    1.4598 C   0  0  0  0  0  0  0  0  0  0  0  0
  -84.4427   27.4259    2.1951 C   0  0  0  0  0  0  0  0  0  0  0  0
  -83.2104   27.9064    2.5710 C   0  0  0  0  0  0  0  0  0  0  0  0
  -82.8483   29.1810    2.2150 C   0  0  0  0  0  0  0  0  0  0  0  0
  -83.7163   29.9907    1.4780 C   0  0  0  0  0  0  0  0  0  0  0  0
  -84.9296   29.5381    1.1008 C   0  0  0  0  0  0  0  0  0  0  0  0
  -85.9720   30.0491    0.3946 C   0  0  0  0  0  0  0  0  0  0  0  0
  -86.2798   31.2506   -0.2121 C   0  0  0  0  0  0  0  0  0  0  0  0
  -85.3569   32.3512   -0.1025 C   0  0  0  0  0  0  0  0  0  0  0  0
  -84.2494   32.3912    0.4113 O   0  0  0  0  0  0  0  0  0  0  0  0
  -85.7864   33.6131   -0.6796 N   0  0  0  0  0  0  0  0  0  0  0  0
  -86.6290   33.5395   -1.8187 C   0  0  0  0  0  0  0  0  0  0  0  0
  -87.8167   32.6409   -1.5712 C   0  0  0  0  0  0  0  0  0  0  0  0
  -87.5225   31.4070   -0.8465 C   0  0  0  0  0  0  0  0  0  0  0  0
  -88.4670   30.3906   -0.8821 C   0  0  0  0  0  0  0  0  0  0  0  0
  -89.7572   30.2130   -1.3718 C   0  0  0  0  0  0  0  0  0  0  0  0
  -90.5582   31.1096   -2.0295 C   0  0  0  0  0  0  0  0  0  0  0  0
  -91.8356   30.7230   -2.3987 C   0  0  0  0  0  0  0  0  0  0  0  0
  -92.2817   29.4764   -2.1099 C   0  0  0  0  0  0  0  0  0  0  0  0
  -91.4900   28.5654   -1.4490 C   0  0  0  0  0  0  0  0  0  0  0  0
  -90.2166   28.9240   -1.0733 C   0  0  0  0  0  0  0  0  0  0  0  0
  -89.1934   28.3131   -0.3979 N   0  0  0  0  0  0  0  0  0  0  0  0
  -88.1654   29.2003   -0.2831 C   0  0  0  0  0  0  0  0  0  0  0  0
  -86.9427   29.0351    0.3453 C   0  0  0  0  0  0  0  0  0  0  0  0
  -90.7409   27.7573    2.7004 H   0  0  0  0  0  0  0  0  0  0  0  0
  -85.4820   34.5290   -0.2660 H   0  0  0  0  0  0  0  0  0  0  0  0
  -89.7930   25.3690    1.9767 C   0  0  0  0  0  0  0  0  0  0  0  0
  -89.2771   25.1294    3.2401 O   0  0  0  0  0  0  0  0  0  0  0  0
  -89.0153   24.1999    3.3767 H   0  0  0  0  0  0  0  0  0  0  0  0
  2  1  1  0  0  0
  2  3  1  0  0  0
  3  4  1  0  0  0
  4  5  1  0  0  0
  5  6  1  0  0  0
  6  7  1  0  0  0
  6 35  1  0  0  0
 35 36  1  0  0  0
  4  8  1  0  0  0
  8  9  1  0  0  0
  9 10  2  0  0  0
 10 11  1  0  0  0
 11 12  2  0  0  0
 12 13  1  0  0  0
 13 14  2  0  0  0
 14 15  1  0  0  0
 15 16  2  0  0  0
 16 17  1  0  0  0
 17 18  2  0  0  0
 17 19  1  0  0  0
 19 20  1  0  0  0
 20 21  1  0  0  0
 21 22  1  0  0  0
 22 23  2  0  0  0
 23 24  1  0  0  0
 24 25  2  0  0  0
 25 26  1  0  0  0
 26 27  2  0  0  0
 27 28  1  0  0  0
 28 29  2  0  0  0
 29 30  1  0  0  0
 30 31  1  0  0  0
 31 32  2  0  0  0
  6  2  1  0  0  0
 32  8  1  0  0  0
 30  2  1  0  0  0
 14  9  1  0  0  0
 32 15  1  0  0  0
 22 16  1  0  0  0
 31 23  1  0  0  0
 29 24  1  0  0  0
  7 33  1  0  0  0
 36 37  1  0  0  0
 19 34  1  0  0  0
M  END
> <minimizedAffinity>
-12.82218

> <CNNscore>
0.3029495478

> <CNNaffinity>
6.5765061378

> <CNN_VS>
1.9923495054

> <CNNaffinity_variance>
0.2044694126

$$$$
[H]OC([H])([H])[C@@]1(O[H])C([H])([H])[C@@]2([H])O[C@]1(C([H])([H])[H])n1c3c([H])c([H])c([H])c([H])c3c3c4c(c5c6c([H])c([H])c([H])c([H])c6n2c5c31)C(=O)N([H])C([H])([H])C4([H])[H]


 37 44  0  0  0  0  0  0  0  0999 V2000
  -89.3631   33.7611   -2.3190 C   0  0  0  0  0  0  0  0  0  0  0  0
  -88.2734   32.7638   -2.1367 C   0  0  0  0  0  0  0  0  0  0  0  0
  -87.6227   33.0471   -0.9097 O   0  0  0  0  0  0  0  0  0  0  0  0
  -86.3372   32.6167   -0.9450 C   0  0  0  0  0  0  0  0  0  0  0  0
  -85.9325   32.3392   -2.3826 C   0  0  0  0  0  0  0  0  0  0  0  0
  -87.1614   33.0083   -3.0901 C   0  0  0  0  0  0  0  0  0  0  0  0
  -87.4053   32.3139   -4.2695 O   0  0  0  0  0  0  0  0  0  0  0  0
  -86.2247   31.2898   -0.3278 N   0  0  0  0  0  0  0  0  0  0  0  0
  -85.3052   30.8149    0.4861 C   0  0  0  0  0  0  0  0  0  0  0  0
  -84.2197   31.5119    1.0183 C   0  0  0  0  0  0  0  0  0  0  0  0
  -83.3671   30.8459    1.8669 C   0  0  0  0  0  0  0  0  0  0  0  0
  -83.6068   29.5278    2.1631 C   0  0  0  0  0  0  0  0  0  0  0  0
  -84.7037   28.8601    1.6126 C   0  0  0  0  0  0  0  0  0  0  0  0
  -85.5508   29.4955    0.7772 C   0  0  0  0  0  0  0  0  0  0  0  0
  -86.6783   29.1503    0.1019 C   0  0  0  0  0  0  0  0  0  0  0  0
  -87.4351   28.0083   -0.0695 C   0  0  0  0  0  0  0  0  0  0  0  0
  -86.9982   26.7768    0.5371 C   0  0  0  0  0  0  0  0  0  0  0  0
  -86.0494   26.5664    1.2770 O   0  0  0  0  0  0  0  0  0  0  0  0
  -87.7866   25.5945    0.2364 N   0  0  0  0  0  0  0  0  0  0  0  0
  -89.1742   25.7922    0.0157 C   0  0  0  0  0  0  0  0  0  0  0  0
  -89.4229   26.8682   -1.0136 C   0  0  0  0  0  0  0  0  0  0  0  0
  -88.5645   28.0453   -0.9026 C   0  0  0  0  0  0  0  0  0  0  0  0
  -88.9503   29.1975   -1.5735 C   0  0  0  0  0  0  0  0  0  0  0  0
  -89.9500   29.5727   -2.4657 C   0  0  0  0  0  0  0  0  0  0  0  0
  -90.9519   28.8090   -3.0051 C   0  0  0  0  0  0  0  0  0  0  0  0
  -91.8246   29.3896   -3.9101 C   0  0  0  0  0  0  0  0  0  0  0  0
  -91.6841   30.6927   -4.2542 C   0  0  0  0  0  0  0  0  0  0  0  0
  -90.6825   31.4721   -3.7223 C   0  0  0  0  0  0  0  0  0  0  0  0
  -89.8040   30.9200   -2.8197 C   0  0  0  0  0  0  0  0  0  0  0  0
  -88.7060   31.3666   -2.1332 N   0  0  0  0  0  0  0  0  0  0  0  0
  -88.2039   30.3294   -1.4057 C   0  0  0  0  0  0  0  0  0  0  0  0
  -87.0882   30.3042   -0.5862 C   0  0  0  0  0  0  0  0  0  0  0  0
  -86.5901   32.1797   -4.8099 H   0  0  0  0  0  0  0  0  0  0  0  0
  -87.3413   24.6449    0.1874 H   0  0  0  0  0  0  0  0  0  0  0  0
  -86.6602   34.3841   -3.3059 C   0  0  0  0  0  0  0  0  0  0  0  0
  -86.8415   34.9287   -4.5669 O   0  0  0  0  0  0  0  0  0  0  0  0
  -86.1561   35.5807   -4.8044 H   0  0  0  0  0  0  0  0  0  0  0  0
  2  1  1  0  0  0
  2  3  1  0  0  0
  3  4  1  0  0  0
  4  5  1  0  0  0
  5  6  1  0  0  0
  6  7  1  0  0  0
  6 35  1  0  0  0
 35 36  1  0  0  0
  4  8  1  0  0  0
  8  9  1  0  0  0
  9 10  2  0  0  0
 10 11  1  0  0  0
 11 12  2  0  0  0
 12 13  1  0  0  0
 13 14  2  0  0  0
 14 15  1  0  0  0
 15 16  2  0  0  0
 16 17  1  0  0  0
 17 18  2  0  0  0
 17 19  1  0  0  0
 19 20  1  0  0  0
 20 21  1  0  0  0
 21 22  1  0  0  0
 22 23  2  0  0  0
 23 24  1  0  0  0
 24 25  2  0  0  0
 25 26  1  0  0  0
 26 27  2  0  0  0
 27 28  1  0  0  0
 28 29  2  0  0  0
 29 30  1  0  0  0
 30 31  1  0  0  0
 31 32  2  0  0  0
  6  2  1  0  0  0
 32  8  1  0  0  0
 30  2  1  0  0  0
 14  9  1  0  0  0
 32 15  1  0  0  0
 22 16  1  0  0  0
 31 23  1  0  0  0
 29 24  1  0  0  0
  7 33  1  0  0  0
 36 37  1  0  0  0
 19 34  1  0  0  0
M  END
> <minimizedAffinity>
-11.00581

> <CNNscore>
0.2688815892

> <CNNaffinity>
6.3927507401

> <CNN_VS>
1.7188929319

> <CNNaffinity_variance>
0.2806413472

$$$$
[H]OC([H])([H])[C@@]1(O[H])C([H])([H])[C@@]2([H])O[C@]1(C([H])([H])[H])n1c3c([H])c([H])c([H])c([H])c3c3c4c(c5c6c([H])c([H])c([H])c([H])c6n2c5c31)C(=O)N([H])C([H])([H])C4([H])[H]


 37 44  0  0  0  0  0  0  0  0999 V2000
  -91.1593   32.3491   -3.5653 C   0  0  0  0  0  0  0  0  0  0  0  0
  -89.8805   31.6618   -3.2373 C   0  0  0  0  0  0  0  0  0  0  0  0
  -89.3246   32.2943   -2.0971 O   0  0  0  0  0  0  0  0  0  0  0  0
  -87.9758   32.1548   -2.0885 C   0  0  0  0  0  0  0  0  0  0  0  0
  -87.5002   31.7199   -3.4641 C   0  0  0  0  0  0  0  0  0  0  0  0
  -88.8358   31.9683   -4.2472 C   0  0  0  0  0  0  0  0  0  0  0  0
  -88.9055   31.0384   -5.2782 O   0  0  0  0  0  0  0  0  0  0  0  0
  -87.5844   31.0161   -1.2491 N   0  0  0  0  0  0  0  0  0  0  0  0
  -86.5947   30.9057   -0.3879 C   0  0  0  0  0  0  0  0  0  0  0  0
  -85.6954   31.9058   -0.0157 C   0  0  0  0  0  0  0  0  0  0  0  0
  -84.7297   31.6038    0.9153 C   0  0  0  0  0  0  0  0  0  0  0  0
  -84.6795   30.3396    1.4464 C   0  0  0  0  0  0  0  0  0  0  0  0
  -85.5960   29.3619    1.0513 C   0  0  0  0  0  0  0  0  0  0  0  0
  -86.5498   29.6382    0.1386 C   0  0  0  0  0  0  0  0  0  0  0  0
  -87.5650   28.9411   -0.4356 C   0  0  0  0  0  0  0  0  0  0  0  0
  -88.0513   27.6499   -0.3825 C   0  0  0  0  0  0  0  0  0  0  0  0
  -87.3642   26.6716    0.4212 C   0  0  0  0  0  0  0  0  0  0  0  0
  -86.4027   26.8082    1.1620 O   0  0  0  0  0  0  0  0  0  0  0  0
  -87.8706   25.3119    0.3551 N   0  0  0  0  0  0  0  0  0  0  0  0
  -89.2647   25.1602    0.1386 C   0  0  0  0  0  0  0  0  0  0  0  0
  -89.7283   25.9549   -1.0584 C   0  0  0  0  0  0  0  0  0  0  0  0
  -89.1498   27.2909   -1.1797 C   0  0  0  0  0  0  0  0  0  0  0  0
  -89.7689   28.1929   -2.0339 C   0  0  0  0  0  0  0  0  0  0  0  0
  -90.8139   28.1762   -2.9525 C   0  0  0  0  0  0  0  0  0  0  0  0
  -91.6169   27.1290   -3.3222 C   0  0  0  0  0  0  0  0  0  0  0  0
  -92.5829   27.3347   -4.2930 C   0  0  0  0  0  0  0  0  0  0  0  0
  -92.7260   28.5543   -4.8660 C   0  0  0  0  0  0  0  0  0  0  0  0
  -91.9266   29.6151   -4.5065 C   0  0  0  0  0  0  0  0  0  0  0  0
  -90.9612   29.4376   -3.5432 C   0  0  0  0  0  0  0  0  0  0  0  0
  -89.9971   30.2276   -2.9752 N   0  0  0  0  0  0  0  0  0  0  0  0
  -89.2905   29.4714   -2.0886 C   0  0  0  0  0  0  0  0  0  0  0  0
  -88.2077   29.8363   -1.3065 C   0  0  0  0  0  0  0  0  0  0  0  0
  -88.0733   30.9906   -5.8071 H   0  0  0  0  0  0  0  0  0  0  0  0
  -87.2278   24.4888    0.4637 H   0  0  0  0  0  0  0  0  0  0  0  0
  -88.6447   33.3591   -4.7162 C   0  0  0  0  0  0  0  0  0  0  0  0
  -87.3544   33.8627   -4.6811 O   0  0  0  0  0  0  0  0  0  0  0  0
  -87.3242   34.8295   -4.5562 H   0  0  0  0  0  0  0  0  0  0  0  0
  2  1  1  0  0  0
  2  3  1  0  0  0
  3  4  1  0  0  0
  4  5  1  0  0  0
  5  6  1  0  0  0
  6  7  1  0  0  0
  6 35  1  0  0  0
 35 36  1  0  0  0
  4  8  1  0  0  0
  8  9  1  0  0  0
  9 10  2  0  0  0
 10 11  1  0  0  0
 11 12  2  0  0  0
 12 13  1  0  0  0
 13 14  2  0  0  0
 14 15  1  0  0  0
 15 16  2  0  0  0
 16 17  1  0  0  0
 17 18  2  0  0  0
 17 19  1  0  0  0
 19 20  1  0  0  0
 20 21  1  0  0  0
 21 22  1  0  0  0
 22 23  2  0  0  0
 23 24  1  0  0  0
 24 25  2  0  0  0
 25 26  1  0  0  0
 26 27  2  0  0  0
 27 28  1  0  0  0
 28 29  2  0  0  0
 29 30  1  0  0  0
 30 31  1  0  0  0
 31 32  2  0  0  0
  6  2  1  0  0  0
 32  8  1  0  0  0
 30  2  1  0  0  0
 14  9  1  0  0  0
 32 15  1  0  0  0
 22 16  1  0  0  0
 31 23  1  0  0  0
 29 24  1  0  0  0
  7 33  1  0  0  0
 36 37  1  0  0  0
 19 34  1  0  0  0
M  END
> <minimizedAffinity>
-11.23244

> <CNNscore>
0.2617884874

> <CNNaffinity>
6.0575180054

> <CNN_VS>
1.5857884884

> <CNNaffinity_variance>
0.6040485501

$$$$
[H]OC([H])([H])[C@@]1(O[H])C([H])([H])[C@@]2([H])O[C@]1(C([H])([H])[H])n1c3c([H])c([H])c([H])c([H])c3c3c4c(c5c6c([H])c([H])c([H])c([H])c6n2c5c31)C(=O)N([H])C([H])([H])C4([H])[H]


 37 44  0  0  0  0  0  0  0  0999 V2000
  -90.1564   30.7109   -4.1131 C   0  0  0  0  0  0  0  0  0  0  0  0
  -89.6530   30.5549   -2.7211 C   0  0  0  0  0  0  0  0  0  0  0  0
  -89.1722   29.2293   -2.5765 O   0  0  0  0  0  0  0  0  0  0  0  0
  -89.2527   28.8349   -1.2815 C   0  0  0  0  0  0  0  0  0  0  0  0
  -90.1663   29.7783   -0.5179 C   0  0  0  0  0  0  0  0  0  0  0  0
  -90.7738   30.5389   -1.7471 C   0  0  0  0  0  0  0  0  0  0  0  0
  -91.0547   31.8405   -1.3474 O   0  0  0  0  0  0  0  0  0  0  0  0
  -87.9650   29.0329   -0.6054 N   0  0  0  0  0  0  0  0  0  0  0  0
  -87.3316   28.2522    0.2447 C   0  0  0  0  0  0  0  0  0  0  0  0
  -87.7250   26.9808    0.6646 C   0  0  0  0  0  0  0  0  0  0  0  0
  -86.9211   26.3077    1.5541 C   0  0  0  0  0  0  0  0  0  0  0  0
  -85.7661   26.9004    1.9983 C   0  0  0  0  0  0  0  0  0  0  0  0
  -85.4019   28.1751    1.5572 C   0  0  0  0  0  0  0  0  0  0  0  0
  -86.1776   28.8519    0.6857 C   0  0  0  0  0  0  0  0  0  0  0  0
  -86.1081   30.0625    0.0725 C   0  0  0  0  0  0  0  0  0  0  0  0
  -85.2550   31.1480    0.0890 C   0  0  0  0  0  0  0  0  0  0  0  0
  -84.1261   31.1424    0.9839 C   0  0  0  0  0  0  0  0  0  0  0  0
  -83.7294   30.2622    1.7322 O   0  0  0  0  0  0  0  0  0  0  0  0
  -83.3266   32.3544    1.0211 N   0  0  0  0  0  0  0  0  0  0  0  0
  -83.2387   33.0980   -0.1842 C   0  0  0  0  0  0  0  0  0  0  0  0
  -84.6053   33.3846   -0.7582 C   0  0  0  0  0  0  0  0  0  0  0  0
  -85.5509   32.2725   -0.6977 C   0  0  0  0  0  0  0  0  0  0  0  0
  -86.6846   32.3383   -1.4957 C   0  0  0  0  0  0  0  0  0  0  0  0
  -87.2835   33.2650   -2.3435 C   0  0  0  0  0  0  0  0  0  0  0  0
  -86.8727   34.5341   -2.6576 C   0  0  0  0  0  0  0  0  0  0  0  0
  -87.6526   35.3005   -3.5074 C   0  0  0  0  0  0  0  0  0  0  0  0
  -88.8039   34.7984   -4.0160 C   0  0  0  0  0  0  0  0  0  0  0  0
  -89.2304   33.5267   -3.7090 C   0  0  0  0  0  0  0  0  0  0  0  0
  -88.4728   32.7443   -2.8691 C   0  0  0  0  0  0  0  0  0  0  0  0
  -88.5948   31.4884   -2.3364 N   0  0  0  0  0  0  0  0  0  0  0  0
  -87.5306   31.2658   -1.5147 C   0  0  0  0  0  0  0  0  0  0  0  0
  -87.2484   30.1515   -0.7428 C   0  0  0  0  0  0  0  0  0  0  0  0
  -91.5563   31.8800   -0.4980 H   0  0  0  0  0  0  0  0  0  0  0  0
  -82.8415   32.6562    1.9021 H   0  0  0  0  0  0  0  0  0  0  0  0
  -91.9825   29.7302   -2.0222 C   0  0  0  0  0  0  0  0  0  0  0  0
  -92.6750   29.2415   -0.9262 O   0  0  0  0  0  0  0  0  0  0  0  0
  -93.1424   28.4056   -1.1105 H   0  0  0  0  0  0  0  0  0  0  0  0
  2  1  1  0  0  0
  2  3  1  0  0  0
  3  4  1  0  0  0
  4  5  1  0  0  0
  5  6  1  0  0  0
  6  7  1  0  0  0
  6 35  1  0  0  0
 35 36  1  0  0  0
  4  8  1  0  0  0
  8  9  1  0  0  0
  9 10  2  0  0  0
 10 11  1  0  0  0
 11 12  2  0  0  0
 12 13  1  0  0  0
 13 14  2  0  0  0
 14 15  1  0  0  0
 15 16  2  0  0  0
 16 17  1  0  0  0
 17 18  2  0  0  0
 17 19  1  0  0  0
 19 20  1  0  0  0
 20 21  1  0  0  0
 21 22  1  0  0  0
 22 23  2  0  0  0
 23 24  1  0  0  0
 24 25  2  0  0  0
 25 26  1  0  0  0
 26 27  2  0  0  0
 27 28  1  0  0  0
 28 29  2  0  0  0
 29 30  1  0  0  0
 30 31  1  0  0  0
 31 32  2  0  0  0
  6  2  1  0  0  0
 32  8  1  0  0  0
 30  2  1  0  0  0
 14  9  1  0  0  0
 32 15  1  0  0  0
 22 16  1  0  0  0
 31 23  1  0  0  0
 29 24  1  0  0  0
  7 33  1  0  0  0
 36 37  1  0  0  0
 19 34  1  0  0  0
M  END
> <minimizedAffinity>
-11.17466

> <CNNscore>
0.2613058686

> <CNNaffinity>
5.9930391312

> <CNN_VS>
1.5660163164

> <CNNaffinity_variance>
0.9681582451

$$$$
[H]OC([H])([H])[C@@]1(O[H])C([H])([H])[C@@]2([H])O[C@]1(C([H])([H])[H])n1c3c([H])c([H])c([H])c([H])c3c3c4c(c5c6c([H])c([H])c([H])c([H])c6n2c5c31)C(=O)N([H])C([H])([H])C4([H])[H]


 37 44  0  0  0  0  0  0  0  0999 V2000
  -88.6452   27.4289    2.5317 C   0  0  0  0  0  0  0  0  0  0  0  0
  -88.6292   27.6778    1.0643 C   0  0  0  0  0  0  0  0  0  0  0  0
  -89.9570   27.9567    0.6540 O   0  0  0  0  0  0  0  0  0  0  0  0
  -90.1312   27.6195   -0.6478 C   0  0  0  0  0  0  0  0  0  0  0  0
  -88.9912   26.7222   -1.0982 C   0  0  0  0  0  0  0  0  0  0  0  0
  -88.3770   26.4220    0.3129 C   0  0  0  0  0  0  0  0  0  0  0  0
  -87.0069   26.2480    0.1539 O   0  0  0  0  0  0  0  0  0  0  0  0
  -89.9604   28.7961   -1.5085 N   0  0  0  0  0  0  0  0  0  0  0  0
  -90.6569   29.1802   -2.5577 C   0  0  0  0  0  0  0  0  0  0  0  0
  -91.7992   28.5660   -3.0728 C   0  0  0  0  0  0  0  0  0  0  0  0
  -92.4011   29.1242   -4.1759 C   0  0  0  0  0  0  0  0  0  0  0  0
  -91.8658   30.2584   -4.7323 C   0  0  0  0  0  0  0  0  0  0  0  0
  -90.7206   30.8478   -4.1908 C   0  0  0  0  0  0  0  0  0  0  0  0
  -90.1151   30.3148   -3.1099 C   0  0  0  0  0  0  0  0  0  0  0  0
  -89.0302   30.6352   -2.3571 C   0  0  0  0  0  0  0  0  0  0  0  0
  -88.0480   31.6054   -2.3747 C   0  0  0  0  0  0  0  0  0  0  0  0
  -88.0263   32.5656   -3.4484 C   0  0  0  0  0  0  0  0  0  0  0  0
  -88.8126   32.7217   -4.3700 O   0  0  0  0  0  0  0  0  0  0  0  0
  -86.9111   33.4961   -3.4591 N   0  0  0  0  0  0  0  0  0  0  0  0
  -86.3805   33.8705   -2.1976 C   0  0  0  0  0  0  0  0  0  0  0  0
  -86.0512   32.6617   -1.3552 C   0  0  0  0  0  0  0  0  0  0  0  0
  -87.0379   31.5853   -1.3997 C   0  0  0  0  0  0  0  0  0  0  0  0
  -86.9846   30.6124   -0.4112 C   0  0  0  0  0  0  0  0  0  0  0  0
  -86.1479   30.2804    0.6499 C   0  0  0  0  0  0  0  0  0  0  0  0
  -84.9928   30.8941    1.0585 C   0  0  0  0  0  0  0  0  0  0  0  0
  -84.2954   30.3649    2.1315 C   0  0  0  0  0  0  0  0  0  0  0  0
  -84.7523   29.2561    2.7626 C   0  0  0  0  0  0  0  0  0  0  0  0
  -85.9095   28.6278    2.3632 C   0  0  0  0  0  0  0  0  0  0  0  0
  -86.6218   29.1348    1.3016 C   0  0  0  0  0  0  0  0  0  0  0  0
  -87.7587   28.7701    0.6303 N   0  0  0  0  0  0  0  0  0  0  0  0
  -87.9552   29.6512   -0.3906 C   0  0  0  0  0  0  0  0  0  0  0  0
  -88.9562   29.6617   -1.3473 C   0  0  0  0  0  0  0  0  0  0  0  0
  -86.7828   25.6254   -0.5787 H   0  0  0  0  0  0  0  0  0  0  0  0
  -86.5245   33.8674   -4.3620 H   0  0  0  0  0  0  0  0  0  0  0  0
  -89.0922   25.1805    0.6842 C   0  0  0  0  0  0  0  0  0  0  0  0
  -88.8677   24.0651   -0.1063 O   0  0  0  0  0  0  0  0  0  0  0  0
  -89.6281   23.4549   -0.1322 H   0  0  0  0  0  0  0  0  0  0  0  0
  2  1  1  0  0  0
  2  3  1  0  0  0
  3  4  1  0  0  0
  4  5  1  0  0  0
  5  6  1  0  0  0
  6  7  1  0  0  0
  6 35  1  0  0  0
 35 36  1  0  0  0
  4  8  1  0  0  0
  8  9  1  0  0  0
  9 10  2  0  0  0
 10 11  1  0  0  0
 11 12  2  0  0  0
 12 13  1  0  0  0
 13 14  2  0  0  0
 14 15  1  0  0  0
 15 16  2  0  0  0
 16 17  1  0  0  0
 17 18  2  0  0  0
 17 19  1  0  0  0
 19 20  1  0  0  0
 20 21  1  0  0  0
 21 22  1  0  0  0
 22 23  2  0  0  0
 23 24  1  0  0  0
 24 25  2  0  0  0
 25 26  1  0  0  0
 26 27  2  0  0  0
 27 28  1  0  0  0
 28 29  2  0  0  0
 29 30  1  0  0  0
 30 31  1  0  0  0
 31 32  2  0  0  0
  6  2  1  0  0  0
 32  8  1  0  0  0
 30  2  1  0  0  0
 14  9  1  0  0  0
 32 15  1  0  0  0
 22 16  1  0  0  0
 31 23  1  0  0  0
 29 24  1  0  0  0
  7 33  1  0  0  0
 36 37  1  0  0  0
 19 34  1  0  0  0
M  END
> <minimizedAffinity>
-11.42768

> <CNNscore>
0.2505800128

> <CNNaffinity>
6.1665725708

> <CNN_VS>
1.5452197790

> <CNNaffinity_variance>
0.4872958660

$$$$
[H]OC([H])([H])[C@@]1(O[H])C([H])([H])[C@@]2([H])O[C@]1(C([H])([H])[H])n1c3c([H])c([H])c([H])c([H])c3c3c4c(c5c6c([H])c([H])c([H])c([H])c6n2c5c31)C(=O)N([H])C([H])([H])C4([H])[H]


 37 44  0  0  0  0  0  0  0  0999 V2000
  -88.9503   26.4494    1.3412 C   0  0  0  0  0  0  0  0  0  0  0  0
  -88.8197   27.2304    0.0810 C   0  0  0  0  0  0  0  0  0  0  0  0
  -90.0718   27.8379   -0.1882 O   0  0  0  0  0  0  0  0  0  0  0  0
  -90.2193   28.0490   -1.5196 C   0  0  0  0  0  0  0  0  0  0  0  0
  -89.1911   27.2308   -2.2818 C   0  0  0  0  0  0  0  0  0  0  0  0
  -88.7025   26.3306   -1.0946 C   0  0  0  0  0  0  0  0  0  0  0  0
  -87.3629   26.0285   -1.3111 O   0  0  0  0  0  0  0  0  0  0  0  0
  -89.8408   29.4246   -1.8645 N   0  0  0  0  0  0  0  0  0  0  0  0
  -90.4190   30.2764   -2.6852 C   0  0  0  0  0  0  0  0  0  0  0  0
  -91.6053   30.0803   -3.3936 C   0  0  0  0  0  0  0  0  0  0  0  0
  -92.0629   31.0976   -4.1975 C   0  0  0  0  0  0  0  0  0  0  0  0
  -91.3465   32.2650   -4.2784 C   0  0  0  0  0  0  0  0  0  0  0  0
  -90.1623   32.4280   -3.5551 C   0  0  0  0  0  0  0  0  0  0  0  0
  -89.6963   31.4416   -2.7620 C   0  0  0  0  0  0  0  0  0  0  0  0
  -88.6204   31.2879   -1.9464 C   0  0  0  0  0  0  0  0  0  0  0  0
  -87.5142   32.0349   -1.5934 C   0  0  0  0  0  0  0  0  0  0  0  0
  -87.3014   33.3156   -2.2177 C   0  0  0  0  0  0  0  0  0  0  0  0
  -88.0069   33.9242   -3.0075 O   0  0  0  0  0  0  0  0  0  0  0  0
  -86.0695   34.0040   -1.8739 N   0  0  0  0  0  0  0  0  0  0  0  0
  -85.5622   33.7891   -0.5663 C   0  0  0  0  0  0  0  0  0  0  0  0
  -85.4496   32.3168   -0.2517 C   0  0  0  0  0  0  0  0  0  0  0  0
  -86.5716   31.4970   -0.7028 C   0  0  0  0  0  0  0  0  0  0  0  0
  -86.7074   30.2259   -0.1622 C   0  0  0  0  0  0  0  0  0  0  0  0
  -85.9839   29.3962    0.6890 C   0  0  0  0  0  0  0  0  0  0  0  0
  -84.7793   29.6304    1.2989 C   0  0  0  0  0  0  0  0  0  0  0  0
  -84.2215   28.6368    2.0859 C   0  0  0  0  0  0  0  0  0  0  0  0
  -84.8610   27.4528    2.2454 C   0  0  0  0  0  0  0  0  0  0  0  0
  -86.0702   27.2021    1.6385 C   0  0  0  0  0  0  0  0  0  0  0  0
  -86.6465   28.1732    0.8535 C   0  0  0  0  0  0  0  0  0  0  0  0
  -87.7843   28.2634    0.0963 N   0  0  0  0  0  0  0  0  0  0  0  0
  -87.8010   29.4842   -0.5090 C   0  0  0  0  0  0  0  0  0  0  0  0
  -88.7370   30.0050   -1.3865 C   0  0  0  0  0  0  0  0  0  0  0  0
  -87.1871   25.7041   -2.2268 H   0  0  0  0  0  0  0  0  0  0  0  0
  -85.5864   34.6279   -2.5667 H   0  0  0  0  0  0  0  0  0  0  0  0
  -89.6016   25.1622   -1.2252 C   0  0  0  0  0  0  0  0  0  0  0  0
  -89.2004   24.1533   -2.0859 O   0  0  0  0  0  0  0  0  0  0  0  0
  -89.9480   23.6672   -2.4808 H   0  0  0  0  0  0  0  0  0  0  0  0
  2  1  1  0  0  0
  2  3  1  0  0  0
  3  4  1  0  0  0
  4  5  1  0  0  0
  5  6  1  0  0  0
  6  7  1  0  0  0
  6 35  1  0  0  0
 35 36  1  0  0  0
  4  8  1  0  0  0
  8  9  1  0  0  0
  9 10  2  0  0  0
 10 11  1  0  0  0
 11 12  2  0  0  0
 12 13  1  0  0  0
 13 14  2  0  0  0
 14 15  1  0  0  0
 15 16  2  0  0  0
 16 17  1  0  0  0
 17 18  2  0  0  0
 17 19  1  0  0  0
 19 20  1  0  0  0
 20 21  1  0  0  0
 21 22  1  0  0  0
 22 23  2  0  0  0
 23 24  1  0  0  0
 24 25  2  0  0  0
 25 26  1  0  0  0
 26 27  2  0  0  0
 27 28  1  0  0  0
 28 29  2  0  0  0
 29 30  1  0  0  0
 30 31  1  0  0  0
 31 32  2  0  0  0
  6  2  1  0  0  0
 32  8  1  0  0  0
 30  2  1  0  0  0
 14  9  1  0  0  0
 32 15  1  0  0  0
 22 16  1  0  0  0
 31 23  1  0  0  0
 29 24  1  0  0  0
  7 33  1  0  0  0
 36 37  1  0  0  0
 19 34  1  0  0  0
M  END
> <minimizedAffinity>
-11.79548

> <CNNscore>
0.2016349733

> <CNNaffinity>
6.1291441917

> <CNN_VS>
1.2358498573

> <CNNaffinity_variance>
0.3227353692

$$$$
[H]c1c([H])c([H])c2c(c1[H])c1c3c(c4c5c([H])c([H])c([H])c([H])c5n5c4c1n2[C@]1([H])O[C@]5(C([H])([H])[H])[C@@]([H])(OC([H])([H])[H])[C@]([H])(N([H])C([H])([H])[H])C1([H])[H])C([H])([H])N([H])C3=O


 37 44  0  0  0  0  0  0  0  0999 V2000
  -91.6600   29.6397   -1.2390 C   0  0  0  0  0  0  0  0  0  0  0  0
  -91.0889   30.8192   -2.0908 C   0  0  0  0  0  0  0  0  0  0  0  0
  -89.7596   30.7855   -1.7389 C   0  0  0  0  0  0  0  0  0  0  0  0
  -89.3147   29.5413   -2.1564 O   0  0  0  0  0  0  0  0  0  0  0  0
  -89.2728   28.7435   -0.9693 C   0  0  0  0  0  0  0  0  0  0  0  0
  -89.0533   27.3312   -1.5785 C   0  0  0  0  0  0  0  0  0  0  0  0
  -90.5880   28.9127   -0.4040 C   0  0  0  0  0  0  0  0  0  0  0  0
  -88.0424   29.0726   -0.2967 N   0  0  0  0  0  0  0  0  0  0  0  0
  -87.3228   28.2290    0.5094 C   0  0  0  0  0  0  0  0  0  0  0  0
  -87.5684   26.9900    1.0283 C   0  0  0  0  0  0  0  0  0  0  0  0
  -86.6303   26.3716    1.8467 C   0  0  0  0  0  0  0  0  0  0  0  0
  -85.4329   26.9766    2.1626 C   0  0  0  0  0  0  0  0  0  0  0  0
  -85.1601   28.2349    1.6492 C   0  0  0  0  0  0  0  0  0  0  0  0
  -86.1093   28.8048    0.8503 C   0  0  0  0  0  0  0  0  0  0  0  0
  -86.0872   30.0303    0.2447 C   0  0  0  0  0  0  0  0  0  0  0  0
  -85.1844   31.0791    0.1490 C   0  0  0  0  0  0  0  0  0  0  0  0
  -83.8407   31.1830    0.7738 C   0  0  0  0  0  0  0  0  0  0  0  0
  -83.3448   32.4667    0.3650 N   0  0  0  0  0  0  0  0  0  0  0  0
  -84.3091   33.1300   -0.4826 C   0  0  0  0  0  0  0  0  0  0  0  0
  -84.0486   34.2524   -0.9411 O   0  0  0  0  0  0  0  0  0  0  0  0
  -85.4243   32.2297   -0.5818 C   0  0  0  0  0  0  0  0  0  0  0  0
  -86.6237   32.3721   -1.2618 C   0  0  0  0  0  0  0  0  0  0  0  0
  -87.2271   33.3351   -2.0065 C   0  0  0  0  0  0  0  0  0  0  0  0
  -86.8477   34.5667   -2.4446 C   0  0  0  0  0  0  0  0  0  0  0  0
  -87.7736   35.2907   -3.2176 C   0  0  0  0  0  0  0  0  0  0  0  0
  -89.0183   34.8002   -3.5341 C   0  0  0  0  0  0  0  0  0  0  0  0
  -89.3948   33.5453   -3.0834 C   0  0  0  0  0  0  0  0  0  0  0  0
  -88.4736   32.8470   -2.3249 C   0  0  0  0  0  0  0  0  0  0  0  0
  -88.6536   31.6443   -1.8155 N   0  0  0  0  0  0  0  0  0  0  0  0
  -87.5060   31.3207   -1.1539 C   0  0  0  0  0  0  0  0  0  0  0  0
  -87.2493   30.1579   -0.4202 C   0  0  0  0  0  0  0  0  0  0  0  0
  -82.4141   32.8281    0.6644 H   0  0  0  0  0  0  0  0  0  0  0  0
  -92.9344   29.5116   -3.1880 C   0  0  0  0  0  0  0  0  0  0  0  0
  -92.4648   28.7818   -2.0298 N   0  0  0  0  0  0  0  0  0  0  0  0
  -93.2794   28.4649   -1.4970 H   0  0  0  0  0  0  0  0  0  0  0  0
  -90.6900   29.2161    0.9592 O   0  0  0  0  0  0  0  0  0  0  0  0
  -91.0627   28.1327    1.7455 C   0  0  0  0  0  0  0  0  0  0  0  0
 33 34  1  0  0  0
 34  1  1  0  0  0
  1  2  1  0  0  0
  2  3  1  0  0  0
  3  4  1  0  0  0
  4  5  1  0  0  0
  5  6  1  0  0  0
  5  7  1  0  0  0
  7 36  1  0  0  0
 36 37  1  0  0  0
  5  8  1  0  0  0
  8  9  1  0  0  0
  9 10  2  0  0  0
 10 11  1  0  0  0
 11 12  2  0  0  0
 12 13  1  0  0  0
 13 14  2  0  0  0
 14 15  1  0  0  0
 15 16  2  0  0  0
 16 17  1  0  0  0
 17 18  1  0  0  0
 18 19  1  0  0  0
 19 20  2  0  0  0
 19 21  1  0  0  0
 21 22  2  0  0  0
 22 23  1  0  0  0
 23 24  2  0  0  0
 24 25  1  0  0  0
 25 26  2  0  0  0
 26 27  1  0  0  0
 27 28  2  0  0  0
 28 29  1  0  0  0
 29 30  1  0  0  0
 30 31  2  0  0  0
  7  1  1  0  0  0
 31  8  1  0  0  0
 29  3  1  0  0  0
 14  9  1  0  0  0
 31 15  1  0  0  0
 21 16  1  0  0  0
 30 22  1  0  0  0
 28 23  1  0  0  0
 34 35  1  0  0  0
 18 32  1  0  0  0
M  END
> <minimizedAffinity>
-10.68360

> <CNNscore>
0.7005499005

> <CNNaffinity>
6.9255356789

> <CNN_VS>
4.8516831398

> <CNNaffinity_variance>
0.0887105763

$$$$
[H]c1c([H])c([H])c2c(c1[H])c1c3c(c4c5c([H])c([H])c([H])c([H])c5n5c4c1n2[C@]1([H])O[C@]5(C([H])([H])[H])[C@@]([H])(OC([H])([H])[H])[C@]([H])(N([H])C([H])([H])[H])C1([H])[H])C([H])([H])N([H])C3=O


 37 44  0  0  0  0  0  0  0  0999 V2000
  -88.3432   25.8436    0.8712 C   0  0  0  0  0  0  0  0  0  0  0  0
  -87.1062   26.5537    1.5104 C   0  0  0  0  0  0  0  0  0  0  0  0
  -87.2246   27.8208    0.9883 C   0  0  0  0  0  0  0  0  0  0  0  0
  -88.4363   28.2899    1.4700 O   0  0  0  0  0  0  0  0  0  0  0  0
  -89.3503   28.1495    0.3782 C   0  0  0  0  0  0  0  0  0  0  0  0
  -90.7014   28.4180    1.0967 C   0  0  0  0  0  0  0  0  0  0  0  0
  -89.1899   26.7733   -0.0197 C   0  0  0  0  0  0  0  0  0  0  0  0
  -89.1365   29.2829   -0.4846 N   0  0  0  0  0  0  0  0  0  0  0  0
  -90.0830   29.8650   -1.2874 C   0  0  0  0  0  0  0  0  0  0  0  0
  -91.3579   29.5216   -1.6360 C   0  0  0  0  0  0  0  0  0  0  0  0
  -92.0899   30.3235   -2.5040 C   0  0  0  0  0  0  0  0  0  0  0  0
  -91.5648   31.4797   -3.0396 C   0  0  0  0  0  0  0  0  0  0  0  0
  -90.2723   31.8497   -2.7021 C   0  0  0  0  0  0  0  0  0  0  0  0
  -89.5901   31.0330   -1.8468 C   0  0  0  0  0  0  0  0  0  0  0  0
  -88.3116   31.1667   -1.3812 C   0  0  0  0  0  0  0  0  0  0  0  0
  -87.2928   32.0982   -1.5181 C   0  0  0  0  0  0  0  0  0  0  0  0
  -87.3024   33.3451   -2.3254 C   0  0  0  0  0  0  0  0  0  0  0  0
  -86.0034   33.9221   -2.1236 N   0  0  0  0  0  0  0  0  0  0  0  0
  -85.2229   33.0993   -1.2281 C   0  0  0  0  0  0  0  0  0  0  0  0
  -84.0705   33.4464   -0.9288 O   0  0  0  0  0  0  0  0  0  0  0  0
  -86.0665   31.9879   -0.8862 C   0  0  0  0  0  0  0  0  0  0  0  0
  -85.8119   30.8971   -0.0696 C   0  0  0  0  0  0  0  0  0  0  0  0
  -84.7572   30.4244    0.6445 C   0  0  0  0  0  0  0  0  0  0  0  0
  -83.5028   30.8890    0.8964 C   0  0  0  0  0  0  0  0  0  0  0  0
  -82.6707   30.0954    1.7068 C   0  0  0  0  0  0  0  0  0  0  0  0
  -83.0802   28.8950    2.2375 C   0  0  0  0  0  0  0  0  0  0  0  0
  -84.3592   28.4311    1.9753 C   0  0  0  0  0  0  0  0  0  0  0  0
  -85.1640   29.2226    1.1771 C   0  0  0  0  0  0  0  0  0  0  0  0
  -86.4042   28.9464    0.8252 N   0  0  0  0  0  0  0  0  0  0  0  0
  -86.8352   29.9841    0.0527 C   0  0  0  0  0  0  0  0  0  0  0  0
  -88.0746   30.1104   -0.5831 C   0  0  0  0  0  0  0  0  0  0  0  0
  -85.7089   34.8109   -2.5816 H   0  0  0  0  0  0  0  0  0  0  0  0
  -90.2965   24.6241    1.2407 C   0  0  0  0  0  0  0  0  0  0  0  0
  -89.0867   25.1356    1.8485 N   0  0  0  0  0  0  0  0  0  0  0  0
  -89.3510   25.7585    2.6166 H   0  0  0  0  0  0  0  0  0  0  0  0
  -89.0214   26.4917   -1.3810 O   0  0  0  0  0  0  0  0  0  0  0  0
  -90.1436   25.9297   -1.9775 C   0  0  0  0  0  0  0  0  0  0  0  0
 33 34  1  0  0  0
 34  1  1  0  0  0
  1  2  1  0  0  0
  2  3  1  0  0  0
  3  4  1  0  0  0
  4  5  1  0  0  0
  5  6  1  0  0  0
  5  7  1  0  0  0
  7 36  1  0  0  0
 36 37  1  0  0  0
  5  8  1  0  0  0
  8  9  1  0  0  0
  9 10  2  0  0  0
 10 11  1  0  0  0
 11 12  2  0  0  0
 12 13  1  0  0  0
 13 14  2  0  0  0
 14 15  1  0  0  0
 15 16  2  0  0  0
 16 17  1  0  0  0
 17 18  1  0  0  0
 18 19  1  0  0  0
 19 20  2  0  0  0
 19 21  1  0  0  0
 21 22  2  0  0  0
 22 23  1  0  0  0
 23 24  2  0  0  0
 24 25  1  0  0  0
 25 26  2  0  0  0
 26 27  1  0  0  0
 27 28  2  0  0  0
 28 29  1  0  0  0
 29 30  1  0  0  0
 30 31  2  0  0  0
  7  1  1  0  0  0
 31  8  1  0  0  0
 29  3  1  0  0  0
 14  9  1  0  0  0
 31 15  1  0  0  0
 21 16  1  0  0  0
 30 22  1  0  0  0
 28 23  1  0  0  0
 34 35  1  0  0  0
 18 32  1  0  0  0
M  END
> <minimizedAffinity>
-12.24657

> <CNNscore>
0.6000834703

> <CNNaffinity>
7.0470228195

> <CNN_VS>
4.2288017273

> <CNNaffinity_variance>
0.2379758060

$$$$
[H]c1c([H])c([H])c2c(c1[H])c1c3c(c4c5c([H])c([H])c([H])c([H])c5n5c4c1n2[C@]1([H])O[C@]5(C([H])([H])[H])[C@@]([H])(OC([H])([H])[H])[C@]([H])(N([H])C([H])([H])[H])C1([H])[H])C([H])([H])N([H])C3=O


 37 44  0  0  0  0  0  0  0  0999 V2000
  -90.7150   30.9405   -3.2219 C   0  0  0  0  0  0  0  0  0  0  0  0
  -91.1301   29.8169   -2.2179 C   0  0  0  0  0  0  0  0  0  0  0  0
  -90.0246   29.7648   -1.4011 C   0  0  0  0  0  0  0  0  0  0  0  0
  -89.9544   31.0211   -0.8205 O   0  0  0  0  0  0  0  0  0  0  0  0
  -88.9325   31.7104   -1.5471 C   0  0  0  0  0  0  0  0  0  0  0  0
  -89.1359   33.1599   -1.0264 C   0  0  0  0  0  0  0  0  0  0  0  0
  -89.3303   31.5473   -2.9231 C   0  0  0  0  0  0  0  0  0  0  0  0
  -87.6738   31.2734   -1.0000 N   0  0  0  0  0  0  0  0  0  0  0  0
  -86.5204   32.0132   -0.9607 C   0  0  0  0  0  0  0  0  0  0  0  0
  -86.1550   33.2116   -1.5040 C   0  0  0  0  0  0  0  0  0  0  0  0
  -84.8768   33.7172   -1.2969 C   0  0  0  0  0  0  0  0  0  0  0  0
  -83.9413   33.0379   -0.5465 C   0  0  0  0  0  0  0  0  0  0  0  0
  -84.2873   31.8189    0.0150 C   0  0  0  0  0  0  0  0  0  0  0  0
  -85.5528   31.3603   -0.2140 C   0  0  0  0  0  0  0  0  0  0  0  0
  -86.1236   30.1922    0.2088 C   0  0  0  0  0  0  0  0  0  0  0  0
  -85.7329   29.1192    0.9963 C   0  0  0  0  0  0  0  0  0  0  0  0
  -84.4196   28.9058    1.6569 C   0  0  0  0  0  0  0  0  0  0  0  0
  -84.5476   27.6431    2.3276 N   0  0  0  0  0  0  0  0  0  0  0  0
  -85.8690   27.0964    2.1193 C   0  0  0  0  0  0  0  0  0  0  0  0
  -86.1674   26.0082    2.6339 O   0  0  0  0  0  0  0  0  0  0  0  0
  -86.5573   28.0473    1.2911 C   0  0  0  0  0  0  0  0  0  0  0  0
  -87.8466   28.0143    0.7831 C   0  0  0  0  0  0  0  0  0  0  0  0
  -88.8910   27.1455    0.7988 C   0  0  0  0  0  0  0  0  0  0  0  0
  -89.1096   25.9420    1.3959 C   0  0  0  0  0  0  0  0  0  0  0  0
  -90.3548   25.3268    1.1723 C   0  0  0  0  0  0  0  0  0  0  0  0
  -91.3310   25.8940    0.3878 C   0  0  0  0  0  0  0  0  0  0  0  0
  -91.0987   27.1195   -0.2153 C   0  0  0  0  0  0  0  0  0  0  0  0
  -89.8701   27.7106    0.0142 C   0  0  0  0  0  0  0  0  0  0  0  0
  -89.4745   28.8709   -0.4712 N   0  0  0  0  0  0  0  0  0  0  0  0
  -88.2149   29.0880    0.0039 C   0  0  0  0  0  0  0  0  0  0  0  0
  -87.3765   30.1711   -0.2799 C   0  0  0  0  0  0  0  0  0  0  0  0
  -83.7685   27.2188    2.8749 H   0  0  0  0  0  0  0  0  0  0  0  0
  -91.5136   32.6582   -4.5824 C   0  0  0  0  0  0  0  0  0  0  0  0
  -91.7503   31.8965   -3.3748 N   0  0  0  0  0  0  0  0  0  0  0  0
  -91.7582   32.5442   -2.5821 H   0  0  0  0  0  0  0  0  0  0  0  0
  -88.3646   31.1310   -3.8479 O   0  0  0  0  0  0  0  0  0  0  0  0
  -87.8265   32.1696   -4.5980 C   0  0  0  0  0  0  0  0  0  0  0  0
 33 34  1  0  0  0
 34  1  1  0  0  0
  1  2  1  0  0  0
  2  3  1  0  0  0
  3  4  1  0  0  0
  4  5  1  0  0  0
  5  6  1  0  0  0
  5  7  1  0  0  0
  7 36  1  0  0  0
 36 37  1  0  0  0
  5  8  1  0  0  0
  8  9  1  0  0  0
  9 10  2  0  0  0
 10 11  1  0  0  0
 11 12  2  0  0  0
 12 13  1  0  0  0
 13 14  2  0  0  0
 14 15  1  0  0  0
 15 16  2  0  0  0
 16 17  1  0  0  0
 17 18  1  0  0  0
 18 19  1  0  0  0
 19 20  2  0  0  0
 19 21  1  0  0  0
 21 22  2  0  0  0
 22 23  1  0  0  0
 23 24  2  0  0  0
 24 25  1  0  0  0
 25 26  2  0  0  0
 26 27  1  0  0  0
 27 28  2  0  0  0
 28 29  1  0  0  0
 29 30  1  0  0  0
 30 31  2  0  0  0
  7  1  1  0  0  0
 31  8  1  0  0  0
 29  3  1  0  0  0
 14  9  1  0  0  0
 31 15  1  0  0  0
 21 16  1  0  0  0
 30 22  1  0  0  0
 28 23  1  0  0  0
 34 35  1  0  0  0
 18 32  1  0  0  0
M  END
> <minimizedAffinity>
-10.27499

> <CNNscore>
0.3312484026

> <CNNaffinity>
6.5454549789

> <CNN_VS>
2.1681714058

> <CNNaffinity_variance>
0.3530886769

$$$$
[H]c1c([H])c([H])c2c(c1[H])c1c3c(c4c5c([H])c([H])c([H])c([H])c5n5c4c1n2[C@]1([H])O[C@]5(C([H])([H])[H])[C@@]([H])(OC([H])([H])[H])[C@]([H])(N([H])C([H])([H])[H])C1([H])[H])C([H])([H])N([H])C3=O


 37 44  0  0  0  0  0  0  0  0999 V2000
  -90.3289   26.9280    0.9066 C   0  0  0  0  0  0  0  0  0  0  0  0
  -90.6791   27.8283   -0.3221 C   0  0  0  0  0  0  0  0  0  0  0  0
  -89.5157   28.5475   -0.4683 C   0  0  0  0  0  0  0  0  0  0  0  0
  -88.5449   27.5975   -0.7429 O   0  0  0  0  0  0  0  0  0  0  0  0
  -87.8454   27.4126    0.4915 C   0  0  0  0  0  0  0  0  0  0  0  0
  -87.0006   26.1520    0.1584 C   0  0  0  0  0  0  0  0  0  0  0  0
  -88.8993   27.1478    1.4387 C   0  0  0  0  0  0  0  0  0  0  0  0
  -86.9026   28.4965    0.5955 N   0  0  0  0  0  0  0  0  0  0  0  0
  -85.6998   28.4484    1.2514 C   0  0  0  0  0  0  0  0  0  0  0  0
  -85.1154   27.5281    2.0738 C   0  0  0  0  0  0  0  0  0  0  0  0
  -83.8577   27.7671    2.6155 C   0  0  0  0  0  0  0  0  0  0  0  0
  -83.1617   28.9263    2.3480 C   0  0  0  0  0  0  0  0  0  0  0  0
  -83.7336   29.8766    1.5169 C   0  0  0  0  0  0  0  0  0  0  0  0
  -84.9698   29.6005    1.0072 C   0  0  0  0  0  0  0  0  0  0  0  0
  -85.7443   30.3743    0.1884 C   0  0  0  0  0  0  0  0  0  0  0  0
  -85.6106   31.6023   -0.4428 C   0  0  0  0  0  0  0  0  0  0  0  0
  -84.4602   32.5397   -0.3750 C   0  0  0  0  0  0  0  0  0  0  0  0
  -84.8456   33.6526   -1.1958 N   0  0  0  0  0  0  0  0  0  0  0  0
  -86.1548   33.4267   -1.7642 C   0  0  0  0  0  0  0  0  0  0  0  0
  -86.6513   34.2823   -2.5122 O   0  0  0  0  0  0  0  0  0  0  0  0
  -86.5799   32.1480   -1.2662 C   0  0  0  0  0  0  0  0  0  0  0  0
  -87.7600   31.4555   -1.4879 C   0  0  0  0  0  0  0  0  0  0  0  0
  -88.9230   31.6763   -2.1547 C   0  0  0  0  0  0  0  0  0  0  0  0
  -89.3795   32.6825   -2.9498 C   0  0  0  0  0  0  0  0  0  0  0  0
  -90.6771   32.5509   -3.4768 C   0  0  0  0  0  0  0  0  0  0  0  0
  -91.4751   31.4619   -3.2173 C   0  0  0  0  0  0  0  0  0  0  0  0
  -91.0009   30.4430   -2.4070 C   0  0  0  0  0  0  0  0  0  0  0  0
  -89.7241   30.5877   -1.8969 C   0  0  0  0  0  0  0  0  0  0  0  0
  -89.1083   29.7236   -1.1142 N   0  0  0  0  0  0  0  0  0  0  0  0
  -87.8734   30.2393   -0.8524 C   0  0  0  0  0  0  0  0  0  0  0  0
  -86.8832   29.6927   -0.0296 C   0  0  0  0  0  0  0  0  0  0  0  0
  -84.2341   34.4857   -1.3316 H   0  0  0  0  0  0  0  0  0  0  0  0
  -91.8305   25.5191   -0.1884 C   0  0  0  0  0  0  0  0  0  0  0  0
  -90.6561   25.5719    0.6557 N   0  0  0  0  0  0  0  0  0  0  0  0
  -90.8678   25.0875    1.5323 H   0  0  0  0  0  0  0  0  0  0  0  0
  -88.8928   27.8482    2.6512 O   0  0  0  0  0  0  0  0  0  0  0  0
  -89.6009   27.2146    3.6652 C   0  0  0  0  0  0  0  0  0  0  0  0
 33 34  1  0  0  0
 34  1  1  0  0  0
  1  2  1  0  0  0
  2  3  1  0  0  0
  3  4  1  0  0  0
  4  5  1  0  0  0
  5  6  1  0  0  0
  5  7  1  0  0  0
  7 36  1  0  0  0
 36 37  1  0  0  0
  5  8  1  0  0  0
  8  9  1  0  0  0
  9 10  2  0  0  0
 10 11  1  0  0  0
 11 12  2  0  0  0
 12 13  1  0  0  0
 13 14  2  0  0  0
 14 15  1  0  0  0
 15 16  2  0  0  0
 16 17  1  0  0  0
 17 18  1  0  0  0
 18 19  1  0  0  0
 19 20  2  0  0  0
 19 21  1  0  0  0
 21 22  2  0  0  0
 22 23  1  0  0  0
 23 24  2  0  0  0
 24 25  1  0  0  0
 25 26  2  0  0  0
 26 27  1  0  0  0
 27 28  2  0  0  0
 28 29  1  0  0  0
 29 30  1  0  0  0
 30 31  2  0  0  0
  7  1  1  0  0  0
 31  8  1  0  0  0
 29  3  1  0  0  0
 14  9  1  0  0  0
 31 15  1  0  0  0
 21 16  1  0  0  0
 30 22  1  0  0  0
 28 23  1  0  0  0
 34 35  1  0  0  0
 18 32  1  0  0  0
M  END
> <minimizedAffinity>
-11.51081

> <CNNscore>
0.3214085400

> <CNNaffinity>
6.7350511551

> <CNN_VS>
2.1647028923

> <CNNaffinity_variance>
0.1707750559

$$$$
[H]c1c([H])c([H])c2c(c1[H])c1c3c(c4c5c([H])c([H])c([H])c([H])c5n5c4c1n2[C@]1([H])O[C@]5(C([H])([H])[H])[C@@]([H])(OC([H])([H])[H])[C@]([H])(N([H])C([H])([H])[H])C1([H])[H])C([H])([H])N([H])C3=O


 37 44  0  0  0  0  0  0  0  0999 V2000
  -88.6154   25.8682    0.9825 C   0  0  0  0  0  0  0  0  0  0  0  0
  -87.5986   26.8498    1.6498 C   0  0  0  0  0  0  0  0  0  0  0  0
  -87.7711   27.9779    0.8820 C   0  0  0  0  0  0  0  0  0  0  0  0
  -89.0940   28.3406    1.0787 O   0  0  0  0  0  0  0  0  0  0  0  0
  -89.7828   27.8839   -0.0892 C   0  0  0  0  0  0  0  0  0  0  0  0
  -91.2597   28.0712    0.3551 C   0  0  0  0  0  0  0  0  0  0  0  0
  -89.3974   26.4982   -0.1865 C   0  0  0  0  0  0  0  0  0  0  0  0
  -89.5560   28.8720   -1.1124 N   0  0  0  0  0  0  0  0  0  0  0  0
  -90.4105   29.1639   -2.1439 C   0  0  0  0  0  0  0  0  0  0  0  0
  -91.5573   28.5837   -2.6055 C   0  0  0  0  0  0  0  0  0  0  0  0
  -92.2162   29.1100   -3.7106 C   0  0  0  0  0  0  0  0  0  0  0  0
  -91.7441   30.2216   -4.3745 C   0  0  0  0  0  0  0  0  0  0  0  0
  -90.5814   30.8284   -3.9261 C   0  0  0  0  0  0  0  0  0  0  0  0
  -89.9672   30.2783   -2.8379 C   0  0  0  0  0  0  0  0  0  0  0  0
  -88.8128   30.6747   -2.2219 C   0  0  0  0  0  0  0  0  0  0  0  0
  -87.9008   31.7075   -2.3824 C   0  0  0  0  0  0  0  0  0  0  0  0
  -87.9153   32.7832   -3.4068 C   0  0  0  0  0  0  0  0  0  0  0  0
  -86.7467   33.5695   -3.1290 N   0  0  0  0  0  0  0  0  0  0  0  0
  -86.0427   33.0346   -1.9860 C   0  0  0  0  0  0  0  0  0  0  0  0
  -85.0077   33.5921   -1.5911 O   0  0  0  0  0  0  0  0  0  0  0  0
  -86.7979   31.8870   -1.5659 C   0  0  0  0  0  0  0  0  0  0  0  0
  -86.5635   31.0008   -0.5261 C   0  0  0  0  0  0  0  0  0  0  0  0
  -85.6006   30.8162    0.4144 C   0  0  0  0  0  0  0  0  0  0  0  0
  -84.4712   31.4949    0.7558 C   0  0  0  0  0  0  0  0  0  0  0  0
  -83.7055   30.9815    1.8184 C   0  0  0  0  0  0  0  0  0  0  0  0
  -84.0584   29.8428    2.5032 C   0  0  0  0  0  0  0  0  0  0  0  0
  -85.2101   29.1594    2.1480 C   0  0  0  0  0  0  0  0  0  0  0  0
  -85.9511   29.6768    1.1017 C   0  0  0  0  0  0  0  0  0  0  0  0
  -87.0712   29.1665    0.6291 N   0  0  0  0  0  0  0  0  0  0  0  0
  -87.4796   29.9829   -0.3839 C   0  0  0  0  0  0  0  0  0  0  0  0
  -88.5965   29.8164   -1.2093 C   0  0  0  0  0  0  0  0  0  0  0  0
  -86.4826   34.4002   -3.7005 H   0  0  0  0  0  0  0  0  0  0  0  0
  -89.0529   25.7172    3.2683 C   0  0  0  0  0  0  0  0  0  0  0  0
  -89.4295   25.2369    1.9561 N   0  0  0  0  0  0  0  0  0  0  0  0
  -89.2923   24.2227    1.9330 H   0  0  0  0  0  0  0  0  0  0  0  0
  -88.9644   26.0157   -1.4277 O   0  0  0  0  0  0  0  0  0  0  0  0
  -89.8921   25.1995   -2.0633 C   0  0  0  0  0  0  0  0  0  0  0  0
 33 34  1  0  0  0
 34  1  1  0  0  0
  1  2  1  0  0  0
  2  3  1  0  0  0
  3  4  1  0  0  0
  4  5  1  0  0  0
  5  6  1  0  0  0
  5  7  1  0  0  0
  7 36  1  0  0  0
 36 37  1  0  0  0
  5  8  1  0  0  0
  8  9  1  0  0  0
  9 10  2  0  0  0
 10 11  1  0  0  0
 11 12  2  0  0  0
 12 13  1  0  0  0
 13 14  2  0  0  0
 14 15  1  0  0  0
 15 16  2  0  0  0
 16 17  1  0  0  0
 17 18  1  0  0  0
 18 19  1  0  0  0
 19 20  2  0  0  0
 19 21  1  0  0  0
 21 22  2  0  0  0
 22 23  1  0  0  0
 23 24  2  0  0  0
 24 25  1  0  0  0
 25 26  2  0  0  0
 26 27  1  0  0  0
 27 28  2  0  0  0
 28 29  1  0  0  0
 29 30  1  0  0  0
 30 31  2  0  0  0
  7  1  1  0  0  0
 31  8  1  0  0  0
 29  3  1  0  0  0
 14  9  1  0  0  0
 31 15  1  0  0  0
 21 16  1  0  0  0
 30 22  1  0  0  0
 28 23  1  0  0  0
 34 35  1  0  0  0
 18 32  1  0  0  0
M  END
> <minimizedAffinity>
-10.97527

> <CNNscore>
0.3141312003

> <CNNaffinity>
6.5823531151

> <CNN_VS>
2.0677225590

> <CNNaffinity_variance>
0.2988844514

$$$$
[H]c1c([H])c([H])c2c(c1[H])c1c3c(c4c5c([H])c([H])c([H])c([H])c5n5c4c1n2[C@]1([H])O[C@]5(C([H])([H])[H])[C@@]([H])(OC([H])([H])[H])[C@]([H])(N([H])C([H])([H])[H])C1([H])[H])C([H])([H])N([H])C3=O


 37 44  0  0  0  0  0  0  0  0999 V2000
  -90.7156   26.7106   -0.9444 C   0  0  0  0  0  0  0  0  0  0  0  0
  -89.5962   27.2453    0.0064 C   0  0  0  0  0  0  0  0  0  0  0  0
  -89.3608   28.4901   -0.5294 C   0  0  0  0  0  0  0  0  0  0  0  0
  -90.5633   29.1657   -0.3958 O   0  0  0  0  0  0  0  0  0  0  0  0
  -91.1613   29.1216   -1.6949 C   0  0  0  0  0  0  0  0  0  0  0  0
  -92.5926   29.6320   -1.3712 C   0  0  0  0  0  0  0  0  0  0  0  0
  -91.1281   27.7206   -2.0328 C   0  0  0  0  0  0  0  0  0  0  0  0
  -90.5412   30.1667   -2.4681 N   0  0  0  0  0  0  0  0  0  0  0  0
  -91.1290   30.8535   -3.4986 C   0  0  0  0  0  0  0  0  0  0  0  0
  -92.3022   30.6998   -4.1804 C   0  0  0  0  0  0  0  0  0  0  0  0
  -92.6329   31.5667   -5.2155 C   0  0  0  0  0  0  0  0  0  0  0  0
  -91.8011   32.6001   -5.5892 C   0  0  0  0  0  0  0  0  0  0  0  0
  -90.6040   32.7768   -4.9133 C   0  0  0  0  0  0  0  0  0  0  0  0
  -90.3196   31.9026   -3.9040 C   0  0  0  0  0  0  0  0  0  0  0  0
  -89.2088   31.8542   -3.1084 C   0  0  0  0  0  0  0  0  0  0  0  0
  -88.0522   32.6063   -2.9639 C   0  0  0  0  0  0  0  0  0  0  0  0
  -87.6403   33.8012   -3.7446 C   0  0  0  0  0  0  0  0  0  0  0  0
  -86.3666   34.1749   -3.1977 N   0  0  0  0  0  0  0  0  0  0  0  0
  -86.0007   33.2810   -2.1229 C   0  0  0  0  0  0  0  0  0  0  0  0
  -84.9300   33.4555   -1.5218 O   0  0  0  0  0  0  0  0  0  0  0  0
  -87.0755   32.3331   -2.0222 C   0  0  0  0  0  0  0  0  0  0  0  0
  -87.2316   31.2541   -1.1662 C   0  0  0  0  0  0  0  0  0  0  0  0
  -86.4993   30.6541   -0.1917 C   0  0  0  0  0  0  0  0  0  0  0  0
  -85.2998   30.9263    0.3914 C   0  0  0  0  0  0  0  0  0  0  0  0
  -84.8574   30.0491    1.3983 C   0  0  0  0  0  0  0  0  0  0  0  0
  -85.5852   28.9537    1.7987 C   0  0  0  0  0  0  0  0  0  0  0  0
  -86.8051   28.6856    1.1991 C   0  0  0  0  0  0  0  0  0  0  0  0
  -87.2254   29.5569    0.2113 C   0  0  0  0  0  0  0  0  0  0  0  0
  -88.3537   29.4638   -0.4644 N   0  0  0  0  0  0  0  0  0  0  0  0
  -88.3856   30.5203   -1.3258 C   0  0  0  0  0  0  0  0  0  0  0  0
  -89.3710   30.8112   -2.2749 C   0  0  0  0  0  0  0  0  0  0  0  0
  -85.8185   34.9845   -3.5592 H   0  0  0  0  0  0  0  0  0  0  0  0
  -91.5889   24.7535   -0.0246 C   0  0  0  0  0  0  0  0  0  0  0  0
  -91.7996   26.1738   -0.2055 N   0  0  0  0  0  0  0  0  0  0  0  0
  -92.6784   26.3067   -0.7133 H   0  0  0  0  0  0  0  0  0  0  0  0
  -90.6493   27.3543   -3.2968 O   0  0  0  0  0  0  0  0  0  0  0  0
  -91.5579   26.6157   -4.0449 C   0  0  0  0  0  0  0  0  0  0  0  0
 33 34  1  0  0  0
 34  1  1  0  0  0
  1  2  1  0  0  0
  2  3  1  0  0  0
  3  4  1  0  0  0
  4  5  1  0  0  0
  5  6  1  0  0  0
  5  7  1  0  0  0
  7 36  1  0  0  0
 36 37  1  0  0  0
  5  8  1  0  0  0
  8  9  1  0  0  0
  9 10  2  0  0  0
 10 11  1  0  0  0
 11 12  2  0  0  0
 12 13  1  0  0  0
 13 14  2  0  0  0
 14 15  1  0  0  0
 15 16  2  0  0  0
 16 17  1  0  0  0
 17 18  1  0  0  0
 18 19  1  0  0  0
 19 20  2  0  0  0
 19 21  1  0  0  0
 21 22  2  0  0  0
 22 23  1  0  0  0
 23 24  2  0  0  0
 24 25  1  0  0  0
 25 26  2  0  0  0
 26 27  1  0  0  0
 27 28  2  0  0  0
 28 29  1  0  0  0
 29 30  1  0  0  0
 30 31  2  0  0  0
  7  1  1  0  0  0
 31  8  1  0  0  0
 29  3  1  0  0  0
 14  9  1  0  0  0
 31 15  1  0  0  0
 21 16  1  0  0  0
 30 22  1  0  0  0
 28 23  1  0  0  0
 34 35  1  0  0  0
 18 32  1  0  0  0
M  END
> <minimizedAffinity>
-9.67719

> <CNNscore>
0.2293712497

> <CNNaffinity>
6.1650643349

> <CNN_VS>
1.4140884876

> <CNNaffinity_variance>
0.2731546164

$$$$
[H]c1c([H])c([H])c2c(c1[H])c1c3c(c4c5c([H])c([H])c([H])c([H])c5n5c4c1n2[C@]1([H])O[C@]5(C([H])([H])[H])[C@@]([H])(OC([H])([H])[H])[C@]([H])(N([H])C([H])([H])[H])C1([H])[H])C([H])([H])N([H])C3=O


 37 44  0  0  0  0  0  0  0  0999 V2000
  -93.5945   22.1520   -2.7701 C   0  0  0  0  0  0  0  0  0  0  0  0
  -92.8312   23.4724   -3.1117 C   0  0  0  0  0  0  0  0  0  0  0  0
  -92.0488   23.6279   -1.9911 C   0  0  0  0  0  0  0  0  0  0  0  0
  -91.2304   22.5097   -1.9733 O   0  0  0  0  0  0  0  0  0  0  0  0
  -91.8125   21.6379   -0.9995 C   0  0  0  0  0  0  0  0  0  0  0  0
  -91.0124   20.3330   -1.2656 C   0  0  0  0  0  0  0  0  0  0  0  0
  -93.1906   21.5453   -1.4123 C   0  0  0  0  0  0  0  0  0  0  0  0
  -91.3721   22.1086    0.2885 N   0  0  0  0  0  0  0  0  0  0  0  0
  -91.1944   21.3323    1.4043 C   0  0  0  0  0  0  0  0  0  0  0  0
  -91.4909   20.0326    1.7004 C   0  0  0  0  0  0  0  0  0  0  0  0
  -91.1963   19.5123    2.9553 C   0  0  0  0  0  0  0  0  0  0  0  0
  -90.6026   20.2773    3.9361 C   0  0  0  0  0  0  0  0  0  0  0  0
  -90.2924   21.5998    3.6607 C   0  0  0  0  0  0  0  0  0  0  0  0
  -90.5992   22.0690    2.4158 C   0  0  0  0  0  0  0  0  0  0  0  0
  -90.4133   23.3259    1.9109 C   0  0  0  0  0  0  0  0  0  0  0  0
  -89.8577   24.5120    2.3679 C   0  0  0  0  0  0  0  0  0  0  0  0
  -89.2620   24.7834    3.7013 C   0  0  0  0  0  0  0  0  0  0  0  0
  -88.8550   26.1591    3.6476 N   0  0  0  0  0  0  0  0  0  0  0  0
  -89.1587   26.7215    2.3516 C   0  0  0  0  0  0  0  0  0  0  0  0
  -88.8688   27.9042    2.1164 O   0  0  0  0  0  0  0  0  0  0  0  0
  -89.7763   25.6624    1.6028 C   0  0  0  0  0  0  0  0  0  0  0  0
  -90.2717   25.6611    0.3082 C   0  0  0  0  0  0  0  0  0  0  0  0
  -90.4219   26.5688   -0.6914 C   0  0  0  0  0  0  0  0  0  0  0  0
  -90.0747   27.8766   -0.8397 C   0  0  0  0  0  0  0  0  0  0  0  0
  -90.4075   28.4991   -2.0566 C   0  0  0  0  0  0  0  0  0  0  0  0
  -91.0567   27.8392   -3.0730 C   0  0  0  0  0  0  0  0  0  0  0  0
  -91.4055   26.5080   -2.9121 C   0  0  0  0  0  0  0  0  0  0  0  0
  -91.0716   25.9111   -1.7106 C   0  0  0  0  0  0  0  0  0  0  0  0
  -91.3192   24.6586   -1.3814 N   0  0  0  0  0  0  0  0  0  0  0  0
  -90.8192   24.4748   -0.1262 C   0  0  0  0  0  0  0  0  0  0  0  0
  -90.8877   23.3148    0.6524 C   0  0  0  0  0  0  0  0  0  0  0  0
  -88.4085   26.6423    4.4561 H   0  0  0  0  0  0  0  0  0  0  0  0
  -94.8953   20.8332   -4.1871 C   0  0  0  0  0  0  0  0  0  0  0  0
  -93.5469   21.2399   -3.8540 N   0  0  0  0  0  0  0  0  0  0  0  0
  -93.0137   20.4052   -3.5953 H   0  0  0  0  0  0  0  0  0  0  0  0
  -94.1864   21.7191   -0.4432 O   0  0  0  0  0  0  0  0  0  0  0  0
  -95.0598   22.7633   -0.7219 C   0  0  0  0  0  0  0  0  0  0  0  0
 33 34  1  0  0  0
 34  1  1  0  0  0
  1  2  1  0  0  0
  2  3  1  0  0  0
  3  4  1  0  0  0
  4  5  1  0  0  0
  5  6  1  0  0  0
  5  7  1  0  0  0
  7 36  1  0  0  0
 36 37  1  0  0  0
  5  8  1  0  0  0
  8  9  1  0  0  0
  9 10  2  0  0  0
 10 11  1  0  0  0
 11 12  2  0  0  0
 12 13  1  0  0  0
 13 14  2  0  0  0
 14 15  1  0  0  0
 15 16  2  0  0  0
 16 17  1  0  0  0
 17 18  1  0  0  0
 18 19  1  0  0  0
 19 20  2  0  0  0
 19 21  1  0  0  0
 21 22  2  0  0  0
 22 23  1  0  0  0
 23 24  2  0  0  0
 24 25  1  0  0  0
 25 26  2  0  0  0
 26 27  1  0  0  0
 27 28  2  0  0  0
 28 29  1  0  0  0
 29 30  1  0  0  0
 30 31  2  0  0  0
  7  1  1  0  0  0
 31  8  1  0  0  0
 29  3  1  0  0  0
 14  9  1  0  0  0
 31 15  1  0  0  0
 21 16  1  0  0  0
 30 22  1  0  0  0
 28 23  1  0  0  0
 34 35  1  0  0  0
 18 32  1  0  0  0
M  END
> <minimizedAffinity>
-1.67529

> <CNNscore>
0.1945387721

> <CNNaffinity>
5.3696775436

> <CNN_VS>
1.0446105003

> <CNNaffinity_variance>
0.5482664108

$$$$
[H]c1c([H])c([H])c2c(c1[H])c1c3c(c4c5c([H])c([H])c([H])c([H])c5n5c4c1n2[C@]1([H])O[C@]5(C([H])([H])[H])[C@@]([H])(OC([H])([H])[H])[C@]([H])(N([H])C([H])([H])[H])C1([H])[H])C([H])([H])N([H])C3=O


 37 44  0  0  0  0  0  0  0  0999 V2000
  -91.8883   29.4478   -3.7330 C   0  0  0  0  0  0  0  0  0  0  0  0
  -90.9225   30.5400   -4.2961 C   0  0  0  0  0  0  0  0  0  0  0  0
  -89.8773   30.4591   -3.4055 C   0  0  0  0  0  0  0  0  0  0  0  0
  -89.3903   29.1696   -3.5480 O   0  0  0  0  0  0  0  0  0  0  0  0
  -89.9186   28.4468   -2.4319 C   0  0  0  0  0  0  0  0  0  0  0  0
  -89.5652   26.9895   -2.8386 C   0  0  0  0  0  0  0  0  0  0  0  0
  -91.3327   28.7196   -2.4937 C   0  0  0  0  0  0  0  0  0  0  0  0
  -89.0727   28.7528   -1.3070 N   0  0  0  0  0  0  0  0  0  0  0  0
  -88.8309   27.9251   -0.2413 C   0  0  0  0  0  0  0  0  0  0  0  0
  -89.3656   26.7355    0.1635 C   0  0  0  0  0  0  0  0  0  0  0  0
  -88.9156   26.1216    1.3265 C   0  0  0  0  0  0  0  0  0  0  0  0
  -87.9266   26.6819    2.1060 C   0  0  0  0  0  0  0  0  0  0  0  0
  -87.3683   27.8894    1.7172 C   0  0  0  0  0  0  0  0  0  0  0  0
  -87.8403   28.4569    0.5686 C   0  0  0  0  0  0  0  0  0  0  0  0
  -87.4708   29.6391   -0.0102 C   0  0  0  0  0  0  0  0  0  0  0  0
  -86.5387   30.6313    0.2560 C   0  0  0  0  0  0  0  0  0  0  0  0
  -85.5869   30.7039    1.3942 C   0  0  0  0  0  0  0  0  0  0  0  0
  -84.8703   31.9318    1.1949 N   0  0  0  0  0  0  0  0  0  0  0  0
  -85.3282   32.5900   -0.0073 C   0  0  0  0  0  0  0  0  0  0  0  0
  -84.8145   33.6663   -0.3473 O   0  0  0  0  0  0  0  0  0  0  0  0
  -86.3575   31.7448   -0.5458 C   0  0  0  0  0  0  0  0  0  0  0  0
  -87.1374   31.9066   -1.6802 C   0  0  0  0  0  0  0  0  0  0  0  0
  -87.2919   32.8511   -2.6445 C   0  0  0  0  0  0  0  0  0  0  0  0
  -86.6715   34.0313   -2.9187 C   0  0  0  0  0  0  0  0  0  0  0  0
  -87.1222   34.7528   -4.0391 C   0  0  0  0  0  0  0  0  0  0  0  0
  -88.1451   34.3091   -4.8434 C   0  0  0  0  0  0  0  0  0  0  0  0
  -88.7698   33.1063   -4.5559 C   0  0  0  0  0  0  0  0  0  0  0  0
  -88.3154   32.4098   -3.4514 C   0  0  0  0  0  0  0  0  0  0  0  0
  -88.7843   31.2525   -3.0282 N   0  0  0  0  0  0  0  0  0  0  0  0
  -88.0566   30.9115   -1.9265 C   0  0  0  0  0  0  0  0  0  0  0  0
  -88.2248   29.7852   -1.1143 C   0  0  0  0  0  0  0  0  0  0  0  0
  -84.1326   32.2622    1.8530 H   0  0  0  0  0  0  0  0  0  0  0  0
  -93.1931   29.3314   -5.6626 C   0  0  0  0  0  0  0  0  0  0  0  0
  -92.3394   28.5851   -4.7632 N   0  0  0  0  0  0  0  0  0  0  0  0
  -92.8839   27.8128   -4.3695 H   0  0  0  0  0  0  0  0  0  0  0  0
  -91.9843   29.1129   -1.3183 O   0  0  0  0  0  0  0  0  0  0  0  0
  -93.2822   29.5645   -1.5244 C   0  0  0  0  0  0  0  0  0  0  0  0
 33 34  1  0  0  0
 34  1  1  0  0  0
  1  2  1  0  0  0
  2  3  1  0  0  0
  3  4  1  0  0  0
  4  5  1  0  0  0
  5  6  1  0  0  0
  5  7  1  0  0  0
  7 36  1  0  0  0
 36 37  1  0  0  0
  5  8  1  0  0  0
  8  9  1  0  0  0
  9 10  2  0  0  0
 10 11  1  0  0  0
 11 12  2  0  0  0
 12 13  1  0  0  0
 13 14  2  0  0  0
 14 15  1  0  0  0
 15 16  2  0  0  0
 16 17  1  0  0  0
 17 18  1  0  0  0
 18 19  1  0  0  0
 19 20  2  0  0  0
 19 21  1  0  0  0
 21 22  2  0  0  0
 22 23  1  0  0  0
 23 24  2  0  0  0
 24 25  1  0  0  0
 25 26  2  0  0  0
 26 27  1  0  0  0
 27 28  2  0  0  0
 28 29  1  0  0  0
 29 30  1  0  0  0
 30 31  2  0  0  0
  7  1  1  0  0  0
 31  8  1  0  0  0
 29  3  1  0  0  0
 14  9  1  0  0  0
 31 15  1  0  0  0
 21 16  1  0  0  0
 30 22  1  0  0  0
 28 23  1  0  0  0
 34 35  1  0  0  0
 18 32  1  0  0  0
M  END
> <minimizedAffinity>
-10.09970

> <CNNscore>
0.1263906658

> <CNNaffinity>
6.1920766830

> <CNN_VS>
0.7826206684

> <CNNaffinity_variance>
0.2120238841

$$$$
[H]c1c([H])c([H])c2c(c1[H])c1c3c(c4c5c([H])c([H])c([H])c([H])c5n5c4c1n2[C@]1([H])O[C@]5(C([H])([H])[H])[C@@]([H])(OC([H])([H])[H])[C@]([H])(N([H])C([H])([H])[H])C1([H])[H])C([H])([H])N([H])C3=O


 37 44  0  0  0  0  0  0  0  0999 V2000
  -88.5025   33.6387   -3.1999 C   0  0  0  0  0  0  0  0  0  0  0  0
  -89.7116   32.7799   -2.7065 C   0  0  0  0  0  0  0  0  0  0  0  0
  -89.0941   31.9344   -1.8144 C   0  0  0  0  0  0  0  0  0  0  0  0
  -88.5778   32.7688   -0.8358 O   0  0  0  0  0  0  0  0  0  0  0  0
  -87.1833   32.8776   -1.1372 C   0  0  0  0  0  0  0  0  0  0  0  0
  -86.7718   34.0346   -0.1854 C   0  0  0  0  0  0  0  0  0  0  0  0
  -87.1686   33.2616   -2.5265 C   0  0  0  0  0  0  0  0  0  0  0  0
  -86.5551   31.6951   -0.6064 N   0  0  0  0  0  0  0  0  0  0  0  0
  -85.2616   31.6100   -0.1603 C   0  0  0  0  0  0  0  0  0  0  0  0
  -84.1949   32.4612   -0.2065 C   0  0  0  0  0  0  0  0  0  0  0  0
  -82.9703   32.0842    0.3325 C   0  0  0  0  0  0  0  0  0  0  0  0
  -82.7874   30.8536    0.9256 C   0  0  0  0  0  0  0  0  0  0  0  0
  -83.8545   29.9710    0.9843 C   0  0  0  0  0  0  0  0  0  0  0  0
  -85.0383   30.3825    0.4427 C   0  0  0  0  0  0  0  0  0  0  0  0
  -86.2189   29.6982    0.3593 C   0  0  0  0  0  0  0  0  0  0  0  0
  -86.6863   28.4611    0.7783 C   0  0  0  0  0  0  0  0  0  0  0  0
  -85.9352   27.4009    1.4983 C   0  0  0  0  0  0  0  0  0  0  0  0
  -86.8817   26.3359    1.6733 N   0  0  0  0  0  0  0  0  0  0  0  0
  -88.1616   26.7055    1.1132 C   0  0  0  0  0  0  0  0  0  0  0  0
  -89.1097   25.9089    1.1795 O   0  0  0  0  0  0  0  0  0  0  0  0
  -87.9839   28.0252    0.5742 C   0  0  0  0  0  0  0  0  0  0  0  0
  -88.8866   28.8450   -0.0848 C   0  0  0  0  0  0  0  0  0  0  0  0
  -90.1741   28.7541   -0.5090 C   0  0  0  0  0  0  0  0  0  0  0  0
  -91.1414   27.8032   -0.3945 C   0  0  0  0  0  0  0  0  0  0  0  0
  -92.3898   28.0779   -0.9819 C   0  0  0  0  0  0  0  0  0  0  0  0
  -92.6519   29.2503   -1.6505 C   0  0  0  0  0  0  0  0  0  0  0  0
  -91.6606   30.2119   -1.7612 C   0  0  0  0  0  0  0  0  0  0  0  0
  -90.4396   29.9264   -1.1788 C   0  0  0  0  0  0  0  0  0  0  0  0
  -89.3854   30.7182   -1.1801 N   0  0  0  0  0  0  0  0  0  0  0  0
  -88.4033   30.0680   -0.4928 C   0  0  0  0  0  0  0  0  0  0  0  0
  -87.0922   30.5025   -0.2728 C   0  0  0  0  0  0  0  0  0  0  0  0
  -86.6341   25.4390    2.1433 H   0  0  0  0  0  0  0  0  0  0  0  0
  -88.4533   35.6229   -4.4245 C   0  0  0  0  0  0  0  0  0  0  0  0
  -88.8075   35.0222   -3.1564 N   0  0  0  0  0  0  0  0  0  0  0  0
  -88.2674   35.4839   -2.4195 H   0  0  0  0  0  0  0  0  0  0  0  0
  -86.3190   32.5683   -3.3974 O   0  0  0  0  0  0  0  0  0  0  0  0
  -86.9872   31.9137   -4.4251 C   0  0  0  0  0  0  0  0  0  0  0  0
 33 34  1  0  0  0
 34  1  1  0  0  0
  1  2  1  0  0  0
  2  3  1  0  0  0
  3  4  1  0  0  0
  4  5  1  0  0  0
  5  6  1  0  0  0
  5  7  1  0  0  0
  7 36  1  0  0  0
 36 37  1  0  0  0
  5  8  1  0  0  0
  8  9  1  0  0  0
  9 10  2  0  0  0
 10 11  1  0  0  0
 11 12  2  0  0  0
 12 13  1  0  0  0
 13 14  2  0  0  0
 14 15  1  0  0  0
 15 16  2  0  0  0
 16 17  1  0  0  0
 17 18  1  0  0  0
 18 19  1  0  0  0
 19 20  2  0  0  0
 19 21  1  0  0  0
 21 22  2  0  0  0
 22 23  1  0  0  0
 23 24  2  0  0  0
 24 25  1  0  0  0
 25 26  2  0  0  0
 26 27  1  0  0  0
 27 28  2  0  0  0
 28 29  1  0  0  0
 29 30  1  0  0  0
 30 31  2  0  0  0
  7  1  1  0  0  0
 31  8  1  0  0  0
 29  3  1  0  0  0
 14  9  1  0  0  0
 31 15  1  0  0  0
 21 16  1  0  0  0
 30 22  1  0  0  0
 28 23  1  0  0  0
 34 35  1  0  0  0
 18 32  1  0  0  0
M  END
> <minimizedAffinity>
-9.25318

> <CNNscore>
0.0910033435

> <CNNaffinity>
6.2155551910

> <CNN_VS>
0.5656362772

> <CNNaffinity_variance>
0.2514837384

$$$$
[H]c1c([H])c([H])c2c(c1[H])c1c3c(c4c5c([H])c([H])c([H])c([H])c5n5c4c1n2[C@@]1([H])O[C@]5(C([H])([H])[H])[C@@]([H])(OC([H])([H])[H])[C@@]([H])(N([H])C([H])([H])[H])C1([H])[H])C([H])([H])N([H])C3=O


 37 44  0  0  0  0  0  0  0  0999 V2000
  -88.1855   25.9693   -0.1464 C   0  0  0  0  0  0  0  0  0  0  0  0
  -87.1306   26.4856    0.7424 C   0  0  0  0  0  0  0  0  0  0  0  0
  -87.5406   27.6169    1.6271 C   0  0  0  0  0  0  0  0  0  0  0  0
  -88.8074   27.9025    1.7650 O   0  0  0  0  0  0  0  0  0  0  0  0
  -89.7549   27.7392    0.7809 C   0  0  0  0  0  0  0  0  0  0  0  0
  -91.0483   27.7442    1.6219 C   0  0  0  0  0  0  0  0  0  0  0  0
  -89.5935   26.4228    0.1679 C   0  0  0  0  0  0  0  0  0  0  0  0
  -89.7079   28.8952   -0.0988 N   0  0  0  0  0  0  0  0  0  0  0  0
  -90.6811   29.4021   -0.8623 C   0  0  0  0  0  0  0  0  0  0  0  0
  -91.9654   29.0072   -1.0900 C   0  0  0  0  0  0  0  0  0  0  0  0
  -92.7801   29.7287   -1.9497 C   0  0  0  0  0  0  0  0  0  0  0  0
  -92.3513   30.8563   -2.6065 C   0  0  0  0  0  0  0  0  0  0  0  0
  -91.0374   31.2721   -2.3827 C   0  0  0  0  0  0  0  0  0  0  0  0
  -90.2531   30.5367   -1.5249 C   0  0  0  0  0  0  0  0  0  0  0  0
  -88.9379   30.7345   -1.1439 C   0  0  0  0  0  0  0  0  0  0  0  0
  -87.9883   31.6962   -1.4600 C   0  0  0  0  0  0  0  0  0  0  0  0
  -88.1089   32.8716   -2.3752 C   0  0  0  0  0  0  0  0  0  0  0  0
  -86.8393   33.5372   -2.3149 N   0  0  0  0  0  0  0  0  0  0  0  0
  -85.9657   32.8218   -1.4453 C   0  0  0  0  0  0  0  0  0  0  0  0
  -84.8075   33.1954   -1.2438 O   0  0  0  0  0  0  0  0  0  0  0  0
  -86.7131   31.6874   -0.9338 C   0  0  0  0  0  0  0  0  0  0  0  0
  -86.4236   30.6561   -0.0648 C   0  0  0  0  0  0  0  0  0  0  0  0
  -85.2952   30.2959    0.6409 C   0  0  0  0  0  0  0  0  0  0  0  0
  -84.0417   30.8253    0.7605 C   0  0  0  0  0  0  0  0  0  0  0  0
  -83.1197   30.1846    1.5873 C   0  0  0  0  0  0  0  0  0  0  0  0
  -83.4196   29.0381    2.2901 C   0  0  0  0  0  0  0  0  0  0  0  0
  -84.6860   28.5050    2.1676 C   0  0  0  0  0  0  0  0  0  0  0  0
  -85.5848   29.1286    1.3624 C   0  0  0  0  0  0  0  0  0  0  0  0
  -86.8509   28.8044    1.0929 N   0  0  0  0  0  0  0  0  0  0  0  0
  -87.3720   29.6986    0.2480 C   0  0  0  0  0  0  0  0  0  0  0  0
  -88.6430   29.7356   -0.2929 C   0  0  0  0  0  0  0  0  0  0  0  0
  -86.6027   34.4272   -2.8445 H   0  0  0  0  0  0  0  0  0  0  0  0
  -86.6321   26.9423   -1.5989 C   0  0  0  0  0  0  0  0  0  0  0  0
  -87.9132   26.2680   -1.5586 N   0  0  0  0  0  0  0  0  0  0  0  0
  -87.8403   25.4272   -2.1385 H   0  0  0  0  0  0  0  0  0  0  0  0
  -90.3044   26.1510   -0.9906 O   0  0  0  0  0  0  0  0  0  0  0  0
  -91.2256   25.1456   -0.8985 C   0  0  0  0  0  0  0  0  0  0  0  0
 33 34  1  0  0  0
 34  1  1  0  0  0
  1  2  1  0  0  0
  2  3  1  0  0  0
  3  4  1  0  0  0
  4  5  1  0  0  0
  5  6  1  0  0  0
  5  7  1  0  0  0
  7 36  1  0  0  0
 36 37  1  0  0  0
  5  8  1  0  0  0
  8  9  1  0  0  0
  9 10  2  0  0  0
 10 11  1  0  0  0
 11 12  2  0  0  0
 12 13  1  0  0  0
 13 14  2  0  0  0
 14 15  1  0  0  0
 15 16  2  0  0  0
 16 17  1  0  0  0
 17 18  1  0  0  0
 18 19  1  0  0  0
 19 20  2  0  0  0
 19 21  1  0  0  0
 21 22  2  0  0  0
 22 23  1  0  0  0
 23 24  2  0  0  0
 24 25  1  0  0  0
 25 26  2  0  0  0
 26 27  1  0  0  0
 27 28  2  0  0  0
 28 29  1  0  0  0
 29 30  1  0  0  0
 30 31  2  0  0  0
  7  1  1  0  0  0
 31  8  1  0  0  0
 29  3  1  0  0  0
 14  9  1  0  0  0
 31 15  1  0  0  0
 21 16  1  0  0  0
 30 22  1  0  0  0
 28 23  1  0  0  0
 34 35  1  0  0  0
 18 32  1  0  0  0
M  END
> <minimizedAffinity>
-10.88776

> <CNNscore>
0.4939234257

> <CNNaffinity>
6.9002966881

> <CNN_VS>
3.4082181454

> <CNNaffinity_variance>
0.1545022726

$$$$
[H]c1c([H])c([H])c2c(c1[H])c1c3c(c4c5c([H])c([H])c([H])c([H])c5n5c4c1n2[C@@]1([H])O[C@]5(C([H])([H])[H])[C@@]([H])(OC([H])([H])[H])[C@@]([H])(N([H])C([H])([H])[H])C1([H])[H])C([H])([H])N([H])C3=O


 37 44  0  0  0  0  0  0  0  0999 V2000
  -88.3905   27.3909   -1.3457 C   0  0  0  0  0  0  0  0  0  0  0  0
  -87.5705   27.1197   -0.1527 C   0  0  0  0  0  0  0  0  0  0  0  0
  -87.7299   28.0973    0.9652 C   0  0  0  0  0  0  0  0  0  0  0  0
  -88.7267   28.9407    0.9484 O   0  0  0  0  0  0  0  0  0  0  0  0
  -89.2761   29.4754   -0.1941 C   0  0  0  0  0  0  0  0  0  0  0  0
  -90.6431   29.9522    0.3390 C   0  0  0  0  0  0  0  0  0  0  0  0
  -89.4937   28.4103   -1.1702 C   0  0  0  0  0  0  0  0  0  0  0  0
  -88.4625   30.6056   -0.6099 N   0  0  0  0  0  0  0  0  0  0  0  0
  -88.8235   31.6731   -1.3291 C   0  0  0  0  0  0  0  0  0  0  0  0
  -90.0024   32.0261   -1.9146 C   0  0  0  0  0  0  0  0  0  0  0  0
  -90.1075   33.2152   -2.6207 C   0  0  0  0  0  0  0  0  0  0  0  0
  -89.0556   34.0860   -2.7681 C   0  0  0  0  0  0  0  0  0  0  0  0
  -87.8416   33.7366   -2.1736 C   0  0  0  0  0  0  0  0  0  0  0  0
  -87.7674   32.5514   -1.4796 C   0  0  0  0  0  0  0  0  0  0  0  0
  -86.6954   31.9855   -0.8128 C   0  0  0  0  0  0  0  0  0  0  0  0
  -85.3837   32.3878   -0.6027 C   0  0  0  0  0  0  0  0  0  0  0  0
  -84.6921   33.6250   -1.0766 C   0  0  0  0  0  0  0  0  0  0  0  0
  -83.3571   33.5417   -0.5577 N   0  0  0  0  0  0  0  0  0  0  0  0
  -83.2028   32.3264    0.1707 C   0  0  0  0  0  0  0  0  0  0  0  0
  -82.1311   32.0236    0.7011 O   0  0  0  0  0  0  0  0  0  0  0  0
  -84.4799   31.6382    0.1214 C   0  0  0  0  0  0  0  0  0  0  0  0
  -84.9527   30.4476    0.6329 C   0  0  0  0  0  0  0  0  0  0  0  0
  -84.3797   29.4383    1.3772 C   0  0  0  0  0  0  0  0  0  0  0  0
  -83.1350   29.2361    1.9022 C   0  0  0  0  0  0  0  0  0  0  0  0
  -82.8943   28.0683    2.6253 C   0  0  0  0  0  0  0  0  0  0  0  0
  -83.8602   27.1081    2.8332 C   0  0  0  0  0  0  0  0  0  0  0  0
  -85.1165   27.3143    2.3019 C   0  0  0  0  0  0  0  0  0  0  0  0
  -85.3517   28.4515    1.5974 C   0  0  0  0  0  0  0  0  0  0  0  0
  -86.4718   28.8637    1.0004 N   0  0  0  0  0  0  0  0  0  0  0  0
  -86.2606   30.0490    0.4214 C   0  0  0  0  0  0  0  0  0  0  0  0
  -87.1441   30.8233   -0.3060 C   0  0  0  0  0  0  0  0  0  0  0  0
  -82.6094   34.2820   -0.7036 H   0  0  0  0  0  0  0  0  0  0  0  0
  -86.1922   27.5744   -2.1222 C   0  0  0  0  0  0  0  0  0  0  0  0
  -87.5735   27.7949   -2.4977 N   0  0  0  0  0  0  0  0  0  0  0  0
  -87.7606   27.2373   -3.3360 H   0  0  0  0  0  0  0  0  0  0  0  0
  -89.8318   28.7712   -2.4652 O   0  0  0  0  0  0  0  0  0  0  0  0
  -91.1087   28.4719   -2.8497 C   0  0  0  0  0  0  0  0  0  0  0  0
 33 34  1  0  0  0
 34  1  1  0  0  0
  1  2  1  0  0  0
  2  3  1  0  0  0
  3  4  1  0  0  0
  4  5  1  0  0  0
  5  6  1  0  0  0
  5  7  1  0  0  0
  7 36  1  0  0  0
 36 37  1  0  0  0
  5  8  1  0  0  0
  8  9  1  0  0  0
  9 10  2  0  0  0
 10 11  1  0  0  0
 11 12  2  0  0  0
 12 13  1  0  0  0
 13 14  2  0  0  0
 14 15  1  0  0  0
 15 16  2  0  0  0
 16 17  1  0  0  0
 17 18  1  0  0  0
 18 19  1  0  0  0
 19 20  2  0  0  0
 19 21  1  0  0  0
 21 22  2  0  0  0
 22 23  1  0  0  0
 23 24  2  0  0  0
 24 25  1  0  0  0
 25 26  2  0  0  0
 26 27  1  0  0  0
 27 28  2  0  0  0
 28 29  1  0  0  0
 29 30  1  0  0  0
 30 31  2  0  0  0
  7  1  1  0  0  0
 31  8  1  0  0  0
 29  3  1  0  0  0
 14  9  1  0  0  0
 31 15  1  0  0  0
 21 16  1  0  0  0
 30 22  1  0  0  0
 28 23  1  0  0  0
 34 35  1  0  0  0
 18 32  1  0  0  0
M  END
> <minimizedAffinity>
-9.95777

> <CNNscore>
0.2291288078

> <CNNaffinity>
6.5785737038

> <CNN_VS>
1.5073407888

> <CNNaffinity_variance>
0.5726304054

$$$$
[H]c1c([H])c([H])c2c(c1[H])c1c3c(c4c5c([H])c([H])c([H])c([H])c5n5c4c1n2[C@@]1([H])O[C@]5(C([H])([H])[H])[C@@]([H])(OC([H])([H])[H])[C@@]([H])(N([H])C([H])([H])[H])C1([H])[H])C([H])([H])N([H])C3=O


 37 44  0  0  0  0  0  0  0  0999 V2000
  -89.1233   30.2082   -3.1858 C   0  0  0  0  0  0  0  0  0  0  0  0
  -89.8584   29.3425   -2.2479 C   0  0  0  0  0  0  0  0  0  0  0  0
  -89.9411   29.8490   -0.8453 C   0  0  0  0  0  0  0  0  0  0  0  0
  -89.6173   31.0871   -0.5856 O   0  0  0  0  0  0  0  0  0  0  0  0
  -88.6528   31.7987   -1.2611 C   0  0  0  0  0  0  0  0  0  0  0  0
  -89.0497   33.2435   -0.8937 C   0  0  0  0  0  0  0  0  0  0  0  0
  -88.8306   31.6097   -2.6989 C   0  0  0  0  0  0  0  0  0  0  0  0
  -87.3553   31.4621   -0.6993 N   0  0  0  0  0  0  0  0  0  0  0  0
  -86.2370   32.1944   -0.6860 C   0  0  0  0  0  0  0  0  0  0  0  0
  -85.9407   33.4219   -1.1985 C   0  0  0  0  0  0  0  0  0  0  0  0
  -84.6728   33.9615   -1.0406 C   0  0  0  0  0  0  0  0  0  0  0  0
  -83.6655   33.3067   -0.3749 C   0  0  0  0  0  0  0  0  0  0  0  0
  -83.9552   32.0479    0.1550 C   0  0  0  0  0  0  0  0  0  0  0  0
  -85.2212   31.5385   -0.0172 C   0  0  0  0  0  0  0  0  0  0  0  0
  -85.7507   30.3313    0.4028 C   0  0  0  0  0  0  0  0  0  0  0  0
  -85.2327   29.2608    1.1186 C   0  0  0  0  0  0  0  0  0  0  0  0
  -83.8566   29.0774    1.6719 C   0  0  0  0  0  0  0  0  0  0  0  0
  -83.8753   27.8047    2.3341 N   0  0  0  0  0  0  0  0  0  0  0  0
  -85.1622   27.2097    2.1892 C   0  0  0  0  0  0  0  0  0  0  0  0
  -85.4176   26.1004    2.6645 O   0  0  0  0  0  0  0  0  0  0  0  0
  -85.9766   28.1417    1.4308 C   0  0  0  0  0  0  0  0  0  0  0  0
  -87.2824   28.1392    0.9864 C   0  0  0  0  0  0  0  0  0  0  0  0
  -88.3161   27.2313    1.0779 C   0  0  0  0  0  0  0  0  0  0  0  0
  -88.4481   25.9986    1.6513 C   0  0  0  0  0  0  0  0  0  0  0  0
  -89.6737   25.3410    1.5517 C   0  0  0  0  0  0  0  0  0  0  0  0
  -90.7591   25.8825    0.8983 C   0  0  0  0  0  0  0  0  0  0  0  0
  -90.6234   27.1275    0.3198 C   0  0  0  0  0  0  0  0  0  0  0  0
  -89.4299   27.7688    0.4164 C   0  0  0  0  0  0  0  0  0  0  0  0
  -89.0678   28.9635   -0.0549 N   0  0  0  0  0  0  0  0  0  0  0  0
  -87.7958   29.2074    0.2727 C   0  0  0  0  0  0  0  0  0  0  0  0
  -87.0266   30.3168   -0.0223 C   0  0  0  0  0  0  0  0  0  0  0  0
  -83.0470   27.3843    2.8495 H   0  0  0  0  0  0  0  0  0  0  0  0
  -87.8335   28.2604   -3.0764 C   0  0  0  0  0  0  0  0  0  0  0  0
  -87.8584   29.6018   -3.6217 N   0  0  0  0  0  0  0  0  0  0  0  0
  -87.7816   29.5249   -4.6400 H   0  0  0  0  0  0  0  0  0  0  0  0
  -87.8296   32.0610   -3.5450 O   0  0  0  0  0  0  0  0  0  0  0  0
  -88.1761   33.0871   -4.3786 C   0  0  0  0  0  0  0  0  0  0  0  0
 33 34  1  0  0  0
 34  1  1  0  0  0
  1  2  1  0  0  0
  2  3  1  0  0  0
  3  4  1  0  0  0
  4  5  1  0  0  0
  5  6  1  0  0  0
  5  7  1  0  0  0
  7 36  1  0  0  0
 36 37  1  0  0  0
  5  8  1  0  0  0
  8  9  1  0  0  0
  9 10  2  0  0  0
 10 11  1  0  0  0
 11 12  2  0  0  0
 12 13  1  0  0  0
 13 14  2  0  0  0
 14 15  1  0  0  0
 15 16  2  0  0  0
 16 17  1  0  0  0
 17 18  1  0  0  0
 18 19  1  0  0  0
 19 20  2  0  0  0
 19 21  1  0  0  0
 21 22  2  0  0  0
 22 23  1  0  0  0
 23 24  2  0  0  0
 24 25  1  0  0  0
 25 26  2  0  0  0
 26 27  1  0  0  0
 27 28  2  0  0  0
 28 29  1  0  0  0
 29 30  1  0  0  0
 30 31  2  0  0  0
  7  1  1  0  0  0
 31  8  1  0  0  0
 29  3  1  0  0  0
 14  9  1  0  0  0
 31 15  1  0  0  0
 21 16  1  0  0  0
 30 22  1  0  0  0
 28 23  1  0  0  0
 34 35  1  0  0  0
 18 32  1  0  0  0
M  END
> <minimizedAffinity>
-10.22291

> <CNNscore>
0.2255734354

> <CNNaffinity>
6.7412385941

> <CNN_VS>
1.5206443071

> <CNNaffinity_variance>
0.1352533698

$$$$
[H]c1c([H])c([H])c2c(c1[H])c1c3c(c4c5c([H])c([H])c([H])c([H])c5n5c4c1n2[C@@]1([H])O[C@]5(C([H])([H])[H])[C@@]([H])(OC([H])([H])[H])[C@@]([H])(N([H])C([H])([H])[H])C1([H])[H])C([H])([H])N([H])C3=O


 37 44  0  0  0  0  0  0  0  0999 V2000
  -90.8335   29.7277   -1.1477 C   0  0  0  0  0  0  0  0  0  0  0  0
  -90.4437   30.6047   -2.2650 C   0  0  0  0  0  0  0  0  0  0  0  0
  -89.2458   30.1580   -3.0372 C   0  0  0  0  0  0  0  0  0  0  0  0
  -88.7874   28.9462   -2.8742 O   0  0  0  0  0  0  0  0  0  0  0  0
  -88.8445   28.2436   -1.6926 C   0  0  0  0  0  0  0  0  0  0  0  0
  -88.6432   26.8020   -2.2041 C   0  0  0  0  0  0  0  0  0  0  0  0
  -90.1852   28.3616   -1.1241 C   0  0  0  0  0  0  0  0  0  0  0  0
  -87.7276   28.6551   -0.8587 N   0  0  0  0  0  0  0  0  0  0  0  0
  -87.1119   27.9682    0.1089 C   0  0  0  0  0  0  0  0  0  0  0  0
  -87.3342   26.7317    0.6370 C   0  0  0  0  0  0  0  0  0  0  0  0
  -86.5299   26.2496    1.6589 C   0  0  0  0  0  0  0  0  0  0  0  0
  -85.4875   26.9720    2.1862 C   0  0  0  0  0  0  0  0  0  0  0  0
  -85.2487   28.2408    1.6547 C   0  0  0  0  0  0  0  0  0  0  0  0
  -86.0626   28.6922    0.6420 C   0  0  0  0  0  0  0  0  0  0  0  0
  -86.0362   29.8953   -0.0406 C   0  0  0  0  0  0  0  0  0  0  0  0
  -85.2204   31.0158    0.0340 C   0  0  0  0  0  0  0  0  0  0  0  0
  -84.0624   31.2771    0.9419 C   0  0  0  0  0  0  0  0  0  0  0  0
  -83.5742   32.5761    0.5777 N   0  0  0  0  0  0  0  0  0  0  0  0
  -84.3801   33.1135   -0.4678 C   0  0  0  0  0  0  0  0  0  0  0  0
  -84.1626   34.2319   -0.9404 O   0  0  0  0  0  0  0  0  0  0  0  0
  -85.3895   32.1177   -0.7786 C   0  0  0  0  0  0  0  0  0  0  0  0
  -86.4290   32.0496   -1.6827 C   0  0  0  0  0  0  0  0  0  0  0  0
  -86.9218   32.9197   -2.6321 C   0  0  0  0  0  0  0  0  0  0  0  0
  -86.5648   34.1705   -3.0490 C   0  0  0  0  0  0  0  0  0  0  0  0
  -87.3045   34.7748   -4.0650 C   0  0  0  0  0  0  0  0  0  0  0  0
  -88.3820   34.1629   -4.6673 C   0  0  0  0  0  0  0  0  0  0  0  0
  -88.7409   32.8998   -4.2445 C   0  0  0  0  0  0  0  0  0  0  0  0
  -88.0209   32.3104   -3.2549 C   0  0  0  0  0  0  0  0  0  0  0  0
  -88.1765   31.1110   -2.6911 N   0  0  0  0  0  0  0  0  0  0  0  0
  -87.2408   30.9316   -1.7545 C   0  0  0  0  0  0  0  0  0  0  0  0
  -87.0447   29.8411   -0.9289 C   0  0  0  0  0  0  0  0  0  0  0  0
  -82.7378   33.0510    1.0288 H   0  0  0  0  0  0  0  0  0  0  0  0
  -90.0631   31.6772   -0.1109 C   0  0  0  0  0  0  0  0  0  0  0  0
  -90.6093   30.3630    0.1576 N   0  0  0  0  0  0  0  0  0  0  0  0
  -91.4720   30.4887    0.6947 H   0  0  0  0  0  0  0  0  0  0  0  0
  -90.3863   27.9127    0.1718 O   0  0  0  0  0  0  0  0  0  0  0  0
  -91.3131   26.9190    0.3177 C   0  0  0  0  0  0  0  0  0  0  0  0
 33 34  1  0  0  0
 34  1  1  0  0  0
  1  2  1  0  0  0
  2  3  1  0  0  0
  3  4  1  0  0  0
  4  5  1  0  0  0
  5  6  1  0  0  0
  5  7  1  0  0  0
  7 36  1  0  0  0
 36 37  1  0  0  0
  5  8  1  0  0  0
  8  9  1  0  0  0
  9 10  2  0  0  0
 10 11  1  0  0  0
 11 12  2  0  0  0
 12 13  1  0  0  0
 13 14  2  0  0  0
 14 15  1  0  0  0
 15 16  2  0  0  0
 16 17  1  0  0  0
 17 18  1  0  0  0
 18 19  1  0  0  0
 19 20  2  0  0  0
 19 21  1  0  0  0
 21 22  2  0  0  0
 22 23  1  0  0  0
 23 24  2  0  0  0
 24 25  1  0  0  0
 25 26  2  0  0  0
 26 27  1  0  0  0
 27 28  2  0  0  0
 28 29  1  0  0  0
 29 30  1  0  0  0
 30 31  2  0  0  0
  7  1  1  0  0  0
 31  8  1  0  0  0
 29  3  1  0  0  0
 14  9  1  0  0  0
 31 15  1  0  0  0
 21 16  1  0  0  0
 30 22  1  0  0  0
 28 23  1  0  0  0
 34 35  1  0  0  0
 18 32  1  0  0  0
M  END
> <minimizedAffinity>
-8.67784

> <CNNscore>
0.2188499868

> <CNNaffinity>
6.3617639542

> <CNN_VS>
1.3922719955

> <CNNaffinity_variance>
0.4248330593

$$$$
[H]c1c([H])c([H])c2c(c1[H])c1c3c(c4c5c([H])c([H])c([H])c([H])c5n5c4c1n2[C@@]1([H])O[C@]5(C([H])([H])[H])[C@@]([H])(OC([H])([H])[H])[C@@]([H])(N([H])C([H])([H])[H])C1([H])[H])C([H])([H])N([H])C3=O


 37 44  0  0  0  0  0  0  0  0999 V2000
  -93.4637   23.4724   -3.7476 C   0  0  0  0  0  0  0  0  0  0  0  0
  -94.1053   22.4597   -2.8920 C   0  0  0  0  0  0  0  0  0  0  0  0
  -94.7809   22.9929   -1.6712 C   0  0  0  0  0  0  0  0  0  0  0  0
  -94.9980   24.2758   -1.5617 O   0  0  0  0  0  0  0  0  0  0  0  0
  -94.1798   25.2521   -2.0817 C   0  0  0  0  0  0  0  0  0  0  0  0
  -95.1410   26.4588   -2.0921 C   0  0  0  0  0  0  0  0  0  0  0  0
  -93.8340   24.9100   -3.4593 C   0  0  0  0  0  0  0  0  0  0  0  0
  -93.0833   25.4749   -1.1541 N   0  0  0  0  0  0  0  0  0  0  0  0
  -92.3459   26.5768   -0.9839 C   0  0  0  0  0  0  0  0  0  0  0  0
  -92.3482   27.7858   -1.6129 C   0  0  0  0  0  0  0  0  0  0  0  0
  -91.4558   28.7770   -1.2327 C   0  0  0  0  0  0  0  0  0  0  0  0
  -90.5393   28.6031   -0.2245 C   0  0  0  0  0  0  0  0  0  0  0  0
  -90.5256   27.3691    0.4283 C   0  0  0  0  0  0  0  0  0  0  0  0
  -91.4224   26.4054    0.0296 C   0  0  0  0  0  0  0  0  0  0  0  0
  -91.6059   25.1199    0.5071 C   0  0  0  0  0  0  0  0  0  0  0  0
  -90.9964   24.3800    1.5108 C   0  0  0  0  0  0  0  0  0  0  0  0
  -89.8801   24.7733    2.4233 C   0  0  0  0  0  0  0  0  0  0  0  0
  -89.6614   23.6388    3.2740 N   0  0  0  0  0  0  0  0  0  0  0  0
  -90.5556   22.5901    2.9109 C   0  0  0  0  0  0  0  0  0  0  0  0
  -90.5462   21.5032    3.4941 O   0  0  0  0  0  0  0  0  0  0  0  0
  -91.3678   23.0866    1.8150 C   0  0  0  0  0  0  0  0  0  0  0  0
  -92.3910   22.5561    1.0573 C   0  0  0  0  0  0  0  0  0  0  0  0
  -93.0249   21.3319    1.0397 C   0  0  0  0  0  0  0  0  0  0  0  0
  -92.8935   20.1849    1.7697 C   0  0  0  0  0  0  0  0  0  0  0  0
  -93.7255   19.1049    1.4767 C   0  0  0  0  0  0  0  0  0  0  0  0
  -94.6763   19.1455    0.4803 C   0  0  0  0  0  0  0  0  0  0  0  0
  -94.8071   20.3048   -0.2558 C   0  0  0  0  0  0  0  0  0  0  0  0
  -93.9970   21.3572    0.0290 C   0  0  0  0  0  0  0  0  0  0  0  0
  -93.9422   22.5639   -0.5381 N   0  0  0  0  0  0  0  0  0  0  0  0
  -92.9963   23.2960    0.0570 C   0  0  0  0  0  0  0  0  0  0  0  0
  -92.6044   24.5912   -0.2226 C   0  0  0  0  0  0  0  0  0  0  0  0
  -88.9385   23.6024    4.0515 H   0  0  0  0  0  0  0  0  0  0  0  0
  -91.6892   22.0268   -3.2678 C   0  0  0  0  0  0  0  0  0  0  0  0
  -91.9989   23.3646   -3.7280 N   0  0  0  0  0  0  0  0  0  0  0  0
  -91.5769   23.4804   -4.6538 H   0  0  0  0  0  0  0  0  0  0  0  0
  -92.8419   25.6483   -4.0856 O   0  0  0  0  0  0  0  0  0  0  0  0
  -91.6800   25.7969   -3.3815 C   0  0  0  0  0  0  0  0  0  0  0  0
 33 34  1  0  0  0
 34  1  1  0  0  0
  1  2  1  0  0  0
  2  3  1  0  0  0
  3  4  1  0  0  0
  4  5  1  0  0  0
  5  6  1  0  0  0
  5  7  1  0  0  0
  7 36  1  0  0  0
 36 37  1  0  0  0
  5  8  1  0  0  0
  8  9  1  0  0  0
  9 10  2  0  0  0
 10 11  1  0  0  0
 11 12  2  0  0  0
 12 13  1  0  0  0
 13 14  2  0  0  0
 14 15  1  0  0  0
 15 16  2  0  0  0
 16 17  1  0  0  0
 17 18  1  0  0  0
 18 19  1  0  0  0
 19 20  2  0  0  0
 19 21  1  0  0  0
 21 22  2  0  0  0
 22 23  1  0  0  0
 23 24  2  0  0  0
 24 25  1  0  0  0
 25 26  2  0  0  0
 26 27  1  0  0  0
 27 28  2  0  0  0
 28 29  1  0  0  0
 29 30  1  0  0  0
 30 31  2  0  0  0
  7  1  1  0  0  0
 31  8  1  0  0  0
 29  3  1  0  0  0
 14  9  1  0  0  0
 31 15  1  0  0  0
 21 16  1  0  0  0
 30 22  1  0  0  0
 28 23  1  0  0  0
 34 35  1  0  0  0
 18 32  1  0  0  0
M  END
> <minimizedAffinity>
-3.28389

> <CNNscore>
0.2124501616

> <CNNaffinity>
5.4091215134

> <CNN_VS>
1.1491687298

> <CNNaffinity_variance>
0.1761521995

$$$$
[H]c1c([H])c([H])c2c(c1[H])c1c3c(c4c5c([H])c([H])c([H])c([H])c5n5c4c1n2[C@@]1([H])O[C@]5(C([H])([H])[H])[C@@]([H])(OC([H])([H])[H])[C@@]([H])(N([H])C([H])([H])[H])C1([H])[H])C([H])([H])N([H])C3=O


 37 44  0  0  0  0  0  0  0  0999 V2000
  -89.4137   27.1419   -2.0216 C   0  0  0  0  0  0  0  0  0  0  0  0
  -88.6711   27.2675   -0.7558 C   0  0  0  0  0  0  0  0  0  0  0  0
  -89.1448   28.3519    0.1554 C   0  0  0  0  0  0  0  0  0  0  0  0
  -90.2951   28.9277   -0.0693 O   0  0  0  0  0  0  0  0  0  0  0  0
  -90.8370   29.1256   -1.3183 C   0  0  0  0  0  0  0  0  0  0  0  0
  -92.3192   29.3548   -0.9569 C   0  0  0  0  0  0  0  0  0  0  0  0
  -90.7239   27.8934   -2.0953 C   0  0  0  0  0  0  0  0  0  0  0  0
  -90.2534   30.3290   -1.8871 N   0  0  0  0  0  0  0  0  0  0  0  0
  -90.7683   31.1510   -2.8070 C   0  0  0  0  0  0  0  0  0  0  0  0
  -91.9348   31.1209   -3.5110 C   0  0  0  0  0  0  0  0  0  0  0  0
  -92.2289   32.1208   -4.4260 C   0  0  0  0  0  0  0  0  0  0  0  0
  -91.3826   33.1746   -4.6709 C   0  0  0  0  0  0  0  0  0  0  0  0
  -90.1837   33.2178   -3.9568 C   0  0  0  0  0  0  0  0  0  0  0  0
  -89.9193   32.2125   -3.0561 C   0  0  0  0  0  0  0  0  0  0  0  0
  -88.8180   32.0271   -2.2396 C   0  0  0  0  0  0  0  0  0  0  0  0
  -87.6513   32.7504   -2.0341 C   0  0  0  0  0  0  0  0  0  0  0  0
  -87.2040   34.0187   -2.6860 C   0  0  0  0  0  0  0  0  0  0  0  0
  -85.9383   34.3325   -2.0878 N   0  0  0  0  0  0  0  0  0  0  0  0
  -85.5927   33.3226   -1.1434 C   0  0  0  0  0  0  0  0  0  0  0  0
  -84.5361   33.3669   -0.5086 O   0  0  0  0  0  0  0  0  0  0  0  0
  -86.6788   32.3594   -1.1371 C   0  0  0  0  0  0  0  0  0  0  0  0
  -86.9274   31.1927   -0.4448 C   0  0  0  0  0  0  0  0  0  0  0  0
  -86.2216   30.4795    0.5009 C   0  0  0  0  0  0  0  0  0  0  0  0
  -85.0182   30.6595    1.1217 C   0  0  0  0  0  0  0  0  0  0  0  0
  -84.5987   29.7142    2.0571 C   0  0  0  0  0  0  0  0  0  0  0  0
  -85.3476   28.6044    2.3824 C   0  0  0  0  0  0  0  0  0  0  0  0
  -86.5624   28.4246    1.7540 C   0  0  0  0  0  0  0  0  0  0  0  0
  -86.9718   29.3449    0.8428 C   0  0  0  0  0  0  0  0  0  0  0  0
  -88.0929   29.3832    0.1200 N   0  0  0  0  0  0  0  0  0  0  0  0
  -88.0910   30.4735   -0.6521 C   0  0  0  0  0  0  0  0  0  0  0  0
  -89.0488   30.8923   -1.5556 C   0  0  0  0  0  0  0  0  0  0  0  0
  -85.3592   35.1912   -2.3244 H   0  0  0  0  0  0  0  0  0  0  0  0
  -87.2783   27.8380   -2.6731 C   0  0  0  0  0  0  0  0  0  0  0  0
  -88.5988   27.5286   -3.1810 N   0  0  0  0  0  0  0  0  0  0  0  0
  -88.4990   26.7763   -3.8686 H   0  0  0  0  0  0  0  0  0  0  0  0
  -91.0081   27.9485   -3.4509 O   0  0  0  0  0  0  0  0  0  0  0  0
  -92.0729   27.1979   -3.8641 C   0  0  0  0  0  0  0  0  0  0  0  0
 33 34  1  0  0  0
 34  1  1  0  0  0
  1  2  1  0  0  0
  2  3  1  0  0  0
  3  4  1  0  0  0
  4  5  1  0  0  0
  5  6  1  0  0  0
  5  7  1  0  0  0
  7 36  1  0  0  0
 36 37  1  0  0  0
  5  8  1  0  0  0
  8  9  1  0  0  0
  9 10  2  0  0  0
 10 11  1  0  0  0
 11 12  2  0  0  0
 12 13  1  0  0  0
 13 14  2  0  0  0
 14 15  1  0  0  0
 15 16  2  0  0  0
 16 17  1  0  0  0
 17 18  1  0  0  0
 18 19  1  0  0  0
 19 20  2  0  0  0
 19 21  1  0  0  0
 21 22  2  0  0  0
 22 23  1  0  0  0
 23 24  2  0  0  0
 24 25  1  0  0  0
 25 26  2  0  0  0
 26 27  1  0  0  0
 27 28  2  0  0  0
 28 29  1  0  0  0
 29 30  1  0  0  0
 30 31  2  0  0  0
  7  1  1  0  0  0
 31  8  1  0  0  0
 29  3  1  0  0  0
 14  9  1  0  0  0
 31 15  1  0  0  0
 21 16  1  0  0  0
 30 22  1  0  0  0
 28 23  1  0  0  0
 34 35  1  0  0  0
 18 32  1  0  0  0
M  END
> <minimizedAffinity>
-9.68581

> <CNNscore>
0.1722070724

> <CNNaffinity>
6.3327403069

> <CNN_VS>
1.0905426741

> <CNNaffinity_variance>
0.1618671715

$$$$
[H]c1c([H])c([H])c2c(c1[H])c1c3c(c4c5c([H])c([H])c([H])c([H])c5n5c4c1n2[C@@]1([H])O[C@]5(C([H])([H])[H])[C@@]([H])(OC([H])([H])[H])[C@@]([H])(N([H])C([H])([H])[H])C1([H])[H])C([H])([H])N([H])C3=O


 37 44  0  0  0  0  0  0  0  0999 V2000
  -90.3219   23.8877   -0.4850 C   0  0  0  0  0  0  0  0  0  0  0  0
  -90.1460   25.2516    0.0427 C   0  0  0  0  0  0  0  0  0  0  0  0
  -91.4031   26.0444    0.1901 C   0  0  0  0  0  0  0  0  0  0  0  0
  -92.5592   25.4425    0.1104 O   0  0  0  0  0  0  0  0  0  0  0  0
  -92.8137   24.3445   -0.6787 C   0  0  0  0  0  0  0  0  0  0  0  0
  -94.0959   23.8022   -0.0138 C   0  0  0  0  0  0  0  0  0  0  0  0
  -91.7415   23.3670   -0.5074 C   0  0  0  0  0  0  0  0  0  0  0  0
  -93.0886   24.8035   -2.0300 N   0  0  0  0  0  0  0  0  0  0  0  0
  -93.8129   24.2068   -2.9821 C   0  0  0  0  0  0  0  0  0  0  0  0
  -94.4722   23.0147   -3.0185 C   0  0  0  0  0  0  0  0  0  0  0  0
  -95.1603   22.6272   -4.1587 C   0  0  0  0  0  0  0  0  0  0  0  0
  -95.2166   23.4030   -5.2908 C   0  0  0  0  0  0  0  0  0  0  0  0
  -94.5452   24.6269   -5.2675 C   0  0  0  0  0  0  0  0  0  0  0  0
  -93.8714   24.9844   -4.1229 C   0  0  0  0  0  0  0  0  0  0  0  0
  -93.1373   26.1253   -3.8517 C   0  0  0  0  0  0  0  0  0  0  0  0
  -92.8388   27.2639   -4.5873 C   0  0  0  0  0  0  0  0  0  0  0  0
  -93.2366   27.6113   -5.9853 C   0  0  0  0  0  0  0  0  0  0  0  0
  -92.6752   28.9082   -6.2335 N   0  0  0  0  0  0  0  0  0  0  0  0
  -91.9501   29.3423   -5.0859 C   0  0  0  0  0  0  0  0  0  0  0  0
  -91.3637   30.4273   -5.0654 O   0  0  0  0  0  0  0  0  0  0  0  0
  -92.0747   28.2974   -4.0860 C   0  0  0  0  0  0  0  0  0  0  0  0
  -91.6126   28.1386   -2.7961 C   0  0  0  0  0  0  0  0  0  0  0  0
  -90.8315   28.9122   -1.9640 C   0  0  0  0  0  0  0  0  0  0  0  0
  -90.2292   30.1316   -2.0911 C   0  0  0  0  0  0  0  0  0  0  0  0
  -89.4931   30.6306   -1.0171 C   0  0  0  0  0  0  0  0  0  0  0  0
  -89.3471   29.9449    0.1690 C   0  0  0  0  0  0  0  0  0  0  0  0
  -89.9560   28.7135    0.2950 C   0  0  0  0  0  0  0  0  0  0  0  0
  -90.6733   28.2267   -0.7507 C   0  0  0  0  0  0  0  0  0  0  0  0
  -91.3424   27.0773   -0.8591 N   0  0  0  0  0  0  0  0  0  0  0  0
  -91.9113   27.0023   -2.0655 C   0  0  0  0  0  0  0  0  0  0  0  0
  -92.6823   25.9846   -2.5939 C   0  0  0  0  0  0  0  0  0  0  0  0
  -92.7917   29.4489   -7.1404 H   0  0  0  0  0  0  0  0  0  0  0  0
  -89.0153   24.9527   -2.1060 C   0  0  0  0  0  0  0  0  0  0  0  0
  -89.7592   23.7403   -1.8338 N   0  0  0  0  0  0  0  0  0  0  0  0
  -89.1095   22.9527   -1.9123 H   0  0  0  0  0  0  0  0  0  0  0  0
  -91.6946   22.2905   -1.3794 O   0  0  0  0  0  0  0  0  0  0  0  0
  -92.2637   21.1342   -0.9246 C   0  0  0  0  0  0  0  0  0  0  0  0
 33 34  1  0  0  0
 34  1  1  0  0  0
  1  2  1  0  0  0
  2  3  1  0  0  0
  3  4  1  0  0  0
  4  5  1  0  0  0
  5  6  1  0  0  0
  5  7  1  0  0  0
  7 36  1  0  0  0
 36 37  1  0  0  0
  5  8  1  0  0  0
  8  9  1  0  0  0
  9 10  2  0  0  0
 10 11  1  0  0  0
 11 12  2  0  0  0
 12 13  1  0  0  0
 13 14  2  0  0  0
 14 15  1  0  0  0
 15 16  2  0  0  0
 16 17  1  0  0  0
 17 18  1  0  0  0
 18 19  1  0  0  0
 19 20  2  0  0  0
 19 21  1  0  0  0
 21 22  2  0  0  0
 22 23  1  0  0  0
 23 24  2  0  0  0
 24 25  1  0  0  0
 25 26  2  0  0  0
 26 27  1  0  0  0
 27 28  2  0  0  0
 28 29  1  0  0  0
 29 30  1  0  0  0
 30 31  2  0  0  0
  7  1  1  0  0  0
 31  8  1  0  0  0
 29  3  1  0  0  0
 14  9  1  0  0  0
 31 15  1  0  0  0
 21 16  1  0  0  0
 30 22  1  0  0  0
 28 23  1  0  0  0
 34 35  1  0  0  0
 18 32  1  0  0  0
M  END
> <minimizedAffinity>
-6.12538

> <CNNscore>
0.0811601579

> <CNNaffinity>
5.5181584358

> <CNN_VS>
0.4478546083

> <CNNaffinity_variance>
0.0680447817

$$$$
[H]c1c([H])c([H])c2c(c1[H])c1c3c(c4c5c([H])c([H])c([H])c([H])c5n5c4c1n2[C@@]1([H])O[C@]5(C([H])([H])[H])[C@@]([H])(OC([H])([H])[H])[C@@]([H])(N([H])C([H])([H])[H])C1([H])[H])C([H])([H])N([H])C3=O


 37 44  0  0  0  0  0  0  0  0999 V2000
  -87.4908   26.2538   -0.1466 C   0  0  0  0  0  0  0  0  0  0  0  0
  -86.8517   27.4528    0.4220 C   0  0  0  0  0  0  0  0  0  0  0  0
  -87.7633   28.3620    1.1791 C   0  0  0  0  0  0  0  0  0  0  0  0
  -88.9540   27.9466    1.5181 O   0  0  0  0  0  0  0  0  0  0  0  0
  -89.7123   27.0673    0.7800 C   0  0  0  0  0  0  0  0  0  0  0  0
  -90.7131   26.5815    1.8489 C   0  0  0  0  0  0  0  0  0  0  0  0
  -88.8793   25.9412    0.3643 C   0  0  0  0  0  0  0  0  0  0  0  0
  -90.3951   27.8132   -0.2639 N   0  0  0  0  0  0  0  0  0  0  0  0
  -91.5380   27.5154   -0.8901 C   0  0  0  0  0  0  0  0  0  0  0  0
  -92.3846   26.4518   -0.7930 C   0  0  0  0  0  0  0  0  0  0  0  0
  -93.5264   26.3892   -1.5778 C   0  0  0  0  0  0  0  0  0  0  0  0
  -93.8633   27.3711   -2.4772 C   0  0  0  0  0  0  0  0  0  0  0  0
  -93.0045   28.4665   -2.5873 C   0  0  0  0  0  0  0  0  0  0  0  0
  -91.8799   28.5012   -1.7961 C   0  0  0  0  0  0  0  0  0  0  0  0
  -90.8847   29.4591   -1.7197 C   0  0  0  0  0  0  0  0  0  0  0  0
  -90.6748   30.6692   -2.3665 C   0  0  0  0  0  0  0  0  0  0  0  0
  -91.5087   31.3322   -3.4146 C   0  0  0  0  0  0  0  0  0  0  0  0
  -90.8403   32.5660   -3.7137 N   0  0  0  0  0  0  0  0  0  0  0  0
  -89.6529   32.6677   -2.9321 C   0  0  0  0  0  0  0  0  0  0  0  0
  -88.8996   33.6399   -3.0261 O   0  0  0  0  0  0  0  0  0  0  0  0
  -89.5844   31.4740   -2.1089 C   0  0  0  0  0  0  0  0  0  0  0  0
  -88.6971   31.0068   -1.1618 C   0  0  0  0  0  0  0  0  0  0  0  0
  -87.5144   31.4924   -0.6456 C   0  0  0  0  0  0  0  0  0  0  0  0
  -86.7775   32.6219   -0.8625 C   0  0  0  0  0  0  0  0  0  0  0  0
  -85.5959   32.7995   -0.1437 C   0  0  0  0  0  0  0  0  0  0  0  0
  -85.1392   31.8826    0.7777 C   0  0  0  0  0  0  0  0  0  0  0  0
  -85.8849   30.7425    0.9950 C   0  0  0  0  0  0  0  0  0  0  0  0
  -87.0360   30.5688    0.2951 C   0  0  0  0  0  0  0  0  0  0  0  0
  -87.9109   29.5621    0.3369 N   0  0  0  0  0  0  0  0  0  0  0  0
  -88.9086   29.8000   -0.5191 C   0  0  0  0  0  0  0  0  0  0  0  0
  -90.0127   29.0167   -0.7963 C   0  0  0  0  0  0  0  0  0  0  0  0
  -91.1905   33.2837   -4.4143 H   0  0  0  0  0  0  0  0  0  0  0  0
  -86.8935   27.5301   -2.0130 C   0  0  0  0  0  0  0  0  0  0  0  0
  -87.5425   26.2984   -1.6139 N   0  0  0  0  0  0  0  0  0  0  0  0
  -87.0386   25.5242   -2.0557 H   0  0  0  0  0  0  0  0  0  0  0  0
  -89.3951   25.0588   -0.5721 O   0  0  0  0  0  0  0  0  0  0  0  0
  -89.6718   23.8018   -0.1124 C   0  0  0  0  0  0  0  0  0  0  0  0
 33 34  1  0  0  0
 34  1  1  0  0  0
  1  2  1  0  0  0
  2  3  1  0  0  0
  3  4  1  0  0  0
  4  5  1  0  0  0
  5  6  1  0  0  0
  5  7  1  0  0  0
  7 36  1  0  0  0
 36 37  1  0  0  0
  5  8  1  0  0  0
  8  9  1  0  0  0
  9 10  2  0  0  0
 10 11  1  0  0  0
 11 12  2  0  0  0
 12 13  1  0  0  0
 13 14  2  0  0  0
 14 15  1  0  0  0
 15 16  2  0  0  0
 16 17  1  0  0  0
 17 18  1  0  0  0
 18 19  1  0  0  0
 19 20  2  0  0  0
 19 21  1  0  0  0
 21 22  2  0  0  0
 22 23  1  0  0  0
 23 24  2  0  0  0
 24 25  1  0  0  0
 25 26  2  0  0  0
 26 27  1  0  0  0
 27 28  2  0  0  0
 28 29  1  0  0  0
 29 30  1  0  0  0
 30 31  2  0  0  0
  7  1  1  0  0  0
 31  8  1  0  0  0
 29  3  1  0  0  0
 14  9  1  0  0  0
 31 15  1  0  0  0
 21 16  1  0  0  0
 30 22  1  0  0  0
 28 23  1  0  0  0
 34 35  1  0  0  0
 18 32  1  0  0  0
M  END
> <minimizedAffinity>
-8.96314

> <CNNscore>
0.0788697377

> <CNNaffinity>
5.9812517166

> <CNN_VS>
0.4717397392

> <CNNaffinity_variance>
0.3570260406

$$$$
[H]c1c([H])c([H])c2c(c1[H])c1c3c(c4c5c([H])c([H])c([H])c([H])c5n5c4c1n2[C@@]1([H])O[C@]5(C([H])([H])[H])[C@@]([H])(OC([H])([H])[H])[C@@]([H])(N([H])C([H])([H])[H])C1([H])[H])C([H])([H])N([H])C3=O


 37 44  0  0  0  0  0  0  0  0999 V2000
  -89.2286   33.0555   -1.9979 C   0  0  0  0  0  0  0  0  0  0  0  0
  -87.7899   33.1379   -1.6935 C   0  0  0  0  0  0  0  0  0  0  0  0
  -86.9353   32.1204   -2.3756 C   0  0  0  0  0  0  0  0  0  0  0  0
  -87.4277   31.4199   -3.3616 O   0  0  0  0  0  0  0  0  0  0  0  0
  -88.7454   31.0377   -3.4644 C   0  0  0  0  0  0  0  0  0  0  0  0
  -88.8352   30.7136   -4.9700 C   0  0  0  0  0  0  0  0  0  0  0  0
  -89.6051   32.1828   -3.1742 C   0  0  0  0  0  0  0  0  0  0  0  0
  -88.9397   29.8384   -2.6667 N   0  0  0  0  0  0  0  0  0  0  0  0
  -89.8562   28.8768   -2.8163 C   0  0  0  0  0  0  0  0  0  0  0  0
  -90.8852   28.7222   -3.6963 C   0  0  0  0  0  0  0  0  0  0  0  0
  -91.7051   27.6056   -3.6291 C   0  0  0  0  0  0  0  0  0  0  0  0
  -91.5328   26.6139   -2.6945 C   0  0  0  0  0  0  0  0  0  0  0  0
  -90.4824   26.7597   -1.7862 C   0  0  0  0  0  0  0  0  0  0  0  0
  -89.6861   27.8774   -1.8773 C   0  0  0  0  0  0  0  0  0  0  0  0
  -88.6000   28.2516   -1.1063 C   0  0  0  0  0  0  0  0  0  0  0  0
  -87.9481   27.6658   -0.0300 C   0  0  0  0  0  0  0  0  0  0  0  0
  -88.2543   26.3806    0.6687 C   0  0  0  0  0  0  0  0  0  0  0  0
  -87.2564   26.2521    1.6915 N   0  0  0  0  0  0  0  0  0  0  0  0
  -86.3943   27.3866    1.6630 C   0  0  0  0  0  0  0  0  0  0  0  0
  -85.4627   27.5095    2.4620 O   0  0  0  0  0  0  0  0  0  0  0  0
  -86.8537   28.2404    0.5826 C   0  0  0  0  0  0  0  0  0  0  0  0
  -86.4342   29.4479    0.0643 C   0  0  0  0  0  0  0  0  0  0  0  0
  -85.4195   30.3220    0.3919 C   0  0  0  0  0  0  0  0  0  0  0  0
  -84.4375   30.3227    1.3414 C   0  0  0  0  0  0  0  0  0  0  0  0
  -83.5523   31.3991    1.3892 C   0  0  0  0  0  0  0  0  0  0  0  0
  -83.6261   32.4640    0.5180 C   0  0  0  0  0  0  0  0  0  0  0  0
  -84.6188   32.4613   -0.4399 C   0  0  0  0  0  0  0  0  0  0  0  0
  -85.4815   31.4131   -0.4871 C   0  0  0  0  0  0  0  0  0  0  0  0
  -86.5049   31.1929   -1.3146 N   0  0  0  0  0  0  0  0  0  0  0  0
  -87.0863   30.0297   -1.0083 C   0  0  0  0  0  0  0  0  0  0  0  0
  -88.1786   29.4282   -1.6034 C   0  0  0  0  0  0  0  0  0  0  0  0
  -87.1851   25.4298    2.3603 H   0  0  0  0  0  0  0  0  0  0  0  0
  -89.0821   32.4686    0.2611 C   0  0  0  0  0  0  0  0  0  0  0  0
  -90.0153   32.6214   -0.8359 N   0  0  0  0  0  0  0  0  0  0  0  0
  -90.7201   33.3075   -0.5511 H   0  0  0  0  0  0  0  0  0  0  0  0
  -90.9620   31.9541   -3.0067 O   0  0  0  0  0  0  0  0  0  0  0  0
  -91.7584   32.3182   -4.0561 C   0  0  0  0  0  0  0  0  0  0  0  0
 33 34  1  0  0  0
 34  1  1  0  0  0
  1  2  1  0  0  0
  2  3  1  0  0  0
  3  4  1  0  0  0
  4  5  1  0  0  0
  5  6  1  0  0  0
  5  7  1  0  0  0
  7 36  1  0  0  0
 36 37  1  0  0  0
  5  8  1  0  0  0
  8  9  1  0  0  0
  9 10  2  0  0  0
 10 11  1  0  0  0
 11 12  2  0  0  0
 12 13  1  0  0  0
 13 14  2  0  0  0
 14 15  1  0  0  0
 15 16  2  0  0  0
 16 17  1  0  0  0
 17 18  1  0  0  0
 18 19  1  0  0  0
 19 20  2  0  0  0
 19 21  1  0  0  0
 21 22  2  0  0  0
 22 23  1  0  0  0
 23 24  2  0  0  0
 24 25  1  0  0  0
 25 26  2  0  0  0
 26 27  1  0  0  0
 27 28  2  0  0  0
 28 29  1  0  0  0
 29 30  1  0  0  0
 30 31  2  0  0  0
  7  1  1  0  0  0
 31  8  1  0  0  0
 29  3  1  0  0  0
 14  9  1  0  0  0
 31 15  1  0  0  0
 21 16  1  0  0  0
 30 22  1  0  0  0
 28 23  1  0  0  0
 34 35  1  0  0  0
 18 32  1  0  0  0
M  END
> <minimizedAffinity>
-7.71797

> <CNNscore>
0.0640811324

> <CNNaffinity>
5.8786001205

> <CNN_VS>
0.3767073452

> <CNNaffinity_variance>
0.6747230291

$$$$
[H]Oc1c([H])c([H])c(-c2c([H])sc(N([H])c3c([H])nc4c(c([H])c([H])n4[H])c3C([H])([H])[H])c2[H])c([H])c1[H]


 26 29  0  0  0  0  0  0  0  0999 V2000
  -87.1986   33.3056   -1.5550 N   0  0  0  0  0  0  0  0  0  0  0  0
  -87.4196   34.3149   -1.1892 H   0  0  0  0  0  0  0  0  0  0  0  0
  -89.5289   32.1184   -0.6831 C   0  0  0  0  0  0  0  0  0  0  0  0
  -89.2353   32.1914   -2.1255 C   0  0  0  0  0  0  0  0  0  0  0  0
  -88.0219   32.7822   -2.5198 C   0  0  0  0  0  0  0  0  0  0  0  0
  -87.8169   32.8145   -3.8617 C   0  0  0  0  0  0  0  0  0  0  0  0
  -88.7097   32.3138   -4.7776 N   0  0  0  0  0  0  0  0  0  0  0  0
  -89.8533   31.7577   -4.3804 C   0  0  0  0  0  0  0  0  0  0  0  0
  -90.8982   31.1937   -5.0522 N   0  0  0  0  0  0  0  0  0  0  0  0
  -91.8202   30.7761   -4.1698 C   0  0  0  0  0  0  0  0  0  0  0  0
  -91.3643   31.0741   -2.9191 C   0  0  0  0  0  0  0  0  0  0  0  0
  -90.1291   31.6911   -3.0403 C   0  0  0  0  0  0  0  0  0  0  0  0
  -90.9645   31.1035   -6.0990 H   0  0  0  0  0  0  0  0  0  0  0  0
  -86.0449   32.7791   -0.8914 C   0  0  0  0  0  0  0  0  0  0  0  0
  -85.8187   31.6532   -0.1619 C   0  0  0  0  0  0  0  0  0  0  0  0
  -84.5775   31.4202    0.3014 C   0  0  0  0  0  0  0  0  0  0  0  0
  -83.6116   32.3422    0.0065 C   0  0  0  0  0  0  0  0  0  0  0  0
  -84.4551   33.4998   -0.9019 S   0  0  0  0  0  0  0  0  0  0  0  0
  -84.2200   30.2136    1.1128 C   0  0  0  0  0  0  0  0  0  0  0  0
  -85.1878   29.3558    1.5674 C   0  0  0  0  0  0  0  0  0  0  0  0
  -84.8689   28.2375    2.3176 C   0  0  0  0  0  0  0  0  0  0  0  0
  -83.5640   27.9683    2.6209 C   0  0  0  0  0  0  0  0  0  0  0  0
  -83.1827   26.8539    3.3749 O   0  0  0  0  0  0  0  0  0  0  0  0
  -82.5696   28.8111    2.1786 C   0  0  0  0  0  0  0  0  0  0  0  0
  -82.9086   29.9367    1.4216 C   0  0  0  0  0  0  0  0  0  0  0  0
  -83.1356   26.9879    4.3960 H   0  0  0  0  0  0  0  0  0  0  0  0
  3  4  1  0  0  0
  4  5  2  0  0  0
  5  1  1  0  0  0
  1 14  1  0  0  0
 14 15  2  0  0  0
 15 16  1  0  0  0
 16 17  2  0  0  0
 17 18  1  0  0  0
 16 19  1  0  0  0
 19 20  2  0  0  0
 20 21  1  0  0  0
 21 22  2  0  0  0
 22 23  1  0  0  0
 22 24  1  0  0  0
 24 25  2  0  0  0
  5  6  1  0  0  0
  6  7  2  0  0  0
  7  8  1  0  0  0
  8  9  1  0  0  0
  9 10  1  0  0  0
 10 11  2  0  0  0
 11 12  1  0  0  0
 12  4  1  0  0  0
 18 14  1  0  0  0
 25 19  1  0  0  0
 12  8  2  0  0  0
  1  2  1  0  0  0
 23 26  1  0  0  0
  9 13  1  0  0  0
M  END
> <minimizedAffinity>
-9.66305

> <CNNscore>
0.7121131420

> <CNNaffinity>
6.6890001297

> <CNN_VS>
4.7633247375

> <CNNaffinity_variance>
0.0827401727

$$$$
[H]Oc1c([H])c([H])c(-c2c([H])sc(N([H])c3c([H])nc4c(c([H])c([H])n4[H])c3C([H])([H])[H])c2[H])c([H])c1[H]


 26 29  0  0  0  0  0  0  0  0999 V2000
  -85.4434   32.4056   -0.1763 N   0  0  0  0  0  0  0  0  0  0  0  0
  -84.6494   33.1489   -0.0402 H   0  0  0  0  0  0  0  0  0  0  0  0
  -82.8939   31.7726    0.6602 C   0  0  0  0  0  0  0  0  0  0  0  0
  -83.9978   30.8211    0.8796 C   0  0  0  0  0  0  0  0  0  0  0  0
  -85.2748   31.1773    0.4114 C   0  0  0  0  0  0  0  0  0  0  0  0
  -86.2425   30.2542    0.6465 C   0  0  0  0  0  0  0  0  0  0  0  0
  -86.0130   29.0609    1.2868 N   0  0  0  0  0  0  0  0  0  0  0  0
  -84.7940   28.7446    1.7213 C   0  0  0  0  0  0  0  0  0  0  0  0
  -84.2898   27.6570    2.3726 N   0  0  0  0  0  0  0  0  0  0  0  0
  -82.9760   27.8359    2.5851 C   0  0  0  0  0  0  0  0  0  0  0  0
  -82.6320   29.0495    2.0657 C   0  0  0  0  0  0  0  0  0  0  0  0
  -83.7671   29.6287    1.5205 C   0  0  0  0  0  0  0  0  0  0  0  0
  -84.8492   26.8130    2.6607 H   0  0  0  0  0  0  0  0  0  0  0  0
  -86.5007   32.9496   -0.9729 C   0  0  0  0  0  0  0  0  0  0  0  0
  -86.5441   33.8988   -1.9466 C   0  0  0  0  0  0  0  0  0  0  0  0
  -87.7197   34.1572   -2.5472 C   0  0  0  0  0  0  0  0  0  0  0  0
  -88.8090   33.4410   -2.1342 C   0  0  0  0  0  0  0  0  0  0  0  0
  -88.1680   32.4346   -0.9288 S   0  0  0  0  0  0  0  0  0  0  0  0
  -87.8786   35.1800   -3.6292 C   0  0  0  0  0  0  0  0  0  0  0  0
  -88.1340   36.4928   -3.3284 C   0  0  0  0  0  0  0  0  0  0  0  0
  -88.2822   37.4467   -4.3201 C   0  0  0  0  0  0  0  0  0  0  0  0
  -88.1745   37.0876   -5.6342 C   0  0  0  0  0  0  0  0  0  0  0  0
  -88.3148   38.0076   -6.6780 O   0  0  0  0  0  0  0  0  0  0  0  0
  -87.9185   35.7768   -5.9678 C   0  0  0  0  0  0  0  0  0  0  0  0
  -87.7714   34.8255   -4.9538 C   0  0  0  0  0  0  0  0  0  0  0  0
  -89.2687   38.1378   -7.0467 H   0  0  0  0  0  0  0  0  0  0  0  0
  3  4  1  0  0  0
  4  5  2  0  0  0
  5  1  1  0  0  0
  1 14  1  0  0  0
 14 15  2  0  0  0
 15 16  1  0  0  0
 16 17  2  0  0  0
 17 18  1  0  0  0
 16 19  1  0  0  0
 19 20  2  0  0  0
 20 21  1  0  0  0
 21 22  2  0  0  0
 22 23  1  0  0  0
 22 24  1  0  0  0
 24 25  2  0  0  0
  5  6  1  0  0  0
  6  7  2  0  0  0
  7  8  1  0  0  0
  8  9  1  0  0  0
  9 10  1  0  0  0
 10 11  2  0  0  0
 11 12  1  0  0  0
 12  4  1  0  0  0
 18 14  1  0  0  0
 25 19  1  0  0  0
 12  8  2  0  0  0
  1  2  1  0  0  0
 23 26  1  0  0  0
  9 13  1  0  0  0
M  END
> <minimizedAffinity>
-8.94208

> <CNNscore>
0.5530915856

> <CNNaffinity>
6.2967453003

> <CNN_VS>
3.4826767445

> <CNNaffinity_variance>
0.0797570124

$$$$
[H]Oc1c([H])c([H])c(-c2c([H])sc(N([H])c3c([H])nc4c(c([H])c([H])n4[H])c3C([H])([H])[H])c2[H])c([H])c1[H]


 26 29  0  0  0  0  0  0  0  0999 V2000
  -87.9676   33.2996   -1.1554 N   0  0  0  0  0  0  0  0  0  0  0  0
  -88.3362   34.0457   -0.4421 H   0  0  0  0  0  0  0  0  0  0  0  0
  -88.2008   35.3309   -3.0045 C   0  0  0  0  0  0  0  0  0  0  0  0
  -88.8620   34.0362   -3.2464 C   0  0  0  0  0  0  0  0  0  0  0  0
  -88.7363   33.0403   -2.2618 C   0  0  0  0  0  0  0  0  0  0  0  0
  -89.3710   31.8750   -2.5501 C   0  0  0  0  0  0  0  0  0  0  0  0
  -90.0856   31.6660   -3.7044 N   0  0  0  0  0  0  0  0  0  0  0  0
  -90.1914   32.6249   -4.6231 C   0  0  0  0  0  0  0  0  0  0  0  0
  -90.8213   32.6926   -5.8314 N   0  0  0  0  0  0  0  0  0  0  0  0
  -90.6167   33.9047   -6.3718 C   0  0  0  0  0  0  0  0  0  0  0  0
  -89.8483   34.6232   -5.5033 C   0  0  0  0  0  0  0  0  0  0  0  0
  -89.5756   33.8282   -4.4012 C   0  0  0  0  0  0  0  0  0  0  0  0
  -91.3787   31.9125   -6.2661 H   0  0  0  0  0  0  0  0  0  0  0  0
  -86.7127   32.7703   -0.7153 C   0  0  0  0  0  0  0  0  0  0  0  0
  -86.3631   31.6702    0.0050 C   0  0  0  0  0  0  0  0  0  0  0  0
  -85.0580   31.4233    0.2177 C   0  0  0  0  0  0  0  0  0  0  0  0
  -84.1558   32.3056   -0.3092 C   0  0  0  0  0  0  0  0  0  0  0  0
  -85.1456   33.4464   -1.0811 S   0  0  0  0  0  0  0  0  0  0  0  0
  -84.5647   30.2425    0.9953 C   0  0  0  0  0  0  0  0  0  0  0  0
  -85.4120   29.2238    1.3464 C   0  0  0  0  0  0  0  0  0  0  0  0
  -84.9671   28.1276    2.0645 C   0  0  0  0  0  0  0  0  0  0  0  0
  -83.6558   28.0440    2.4398 C   0  0  0  0  0  0  0  0  0  0  0  0
  -83.1501   26.9611    3.1659 O   0  0  0  0  0  0  0  0  0  0  0  0
  -82.7806   29.0514    2.1020 C   0  0  0  0  0  0  0  0  0  0  0  0
  -83.2462   30.1520    1.3763 C   0  0  0  0  0  0  0  0  0  0  0  0
  -83.1832   27.0445    4.1929 H   0  0  0  0  0  0  0  0  0  0  0  0
  3  4  1  0  0  0
  4  5  2  0  0  0
  5  1  1  0  0  0
  1 14  1  0  0  0
 14 15  2  0  0  0
 15 16  1  0  0  0
 16 17  2  0  0  0
 17 18  1  0  0  0
 16 19  1  0  0  0
 19 20  2  0  0  0
 20 21  1  0  0  0
 21 22  2  0  0  0
 22 23  1  0  0  0
 22 24  1  0  0  0
 24 25  2  0  0  0
  5  6  1  0  0  0
  6  7  2  0  0  0
  7  8  1  0  0  0
  8  9  1  0  0  0
  9 10  1  0  0  0
 10 11  2  0  0  0
 11 12  1  0  0  0
 12  4  1  0  0  0
 18 14  1  0  0  0
 25 19  1  0  0  0
 12  8  2  0  0  0
  1  2  1  0  0  0
 23 26  1  0  0  0
  9 13  1  0  0  0
M  END
> <minimizedAffinity>
-9.19464

> <CNNscore>
0.3509482443

> <CNNaffinity>
6.2587094307

> <CNN_VS>
2.1964831352

> <CNNaffinity_variance>
0.1621576399

$$$$
[H]Oc1c([H])c([H])c(-c2c([H])sc(N([H])c3c([H])nc4c(c([H])c([H])n4[H])c3C([H])([H])[H])c2[H])c([H])c1[H]


 26 29  0  0  0  0  0  0  0  0999 V2000
  -86.7061   26.3591    1.9246 N   0  0  0  0  0  0  0  0  0  0  0  0
  -86.2698   25.4138    2.2670 H   0  0  0  0  0  0  0  0  0  0  0  0
  -87.4531   26.1673   -0.7221 C   0  0  0  0  0  0  0  0  0  0  0  0
  -88.4828   26.2586    0.3283 C   0  0  0  0  0  0  0  0  0  0  0  0
  -88.0524   26.3819    1.6611 C   0  0  0  0  0  0  0  0  0  0  0  0
  -89.0537   26.4620    2.5749 C   0  0  0  0  0  0  0  0  0  0  0  0
  -90.3864   26.4293    2.2445 N   0  0  0  0  0  0  0  0  0  0  0  0
  -90.7707   26.3125    0.9743 C   0  0  0  0  0  0  0  0  0  0  0  0
  -91.9934   26.2549    0.3719 N   0  0  0  0  0  0  0  0  0  0  0  0
  -91.8296   26.1338   -0.9553 C   0  0  0  0  0  0  0  0  0  0  0  0
  -90.4894   26.1133   -1.2091 C   0  0  0  0  0  0  0  0  0  0  0  0
  -89.8151   26.2251   -0.0033 C   0  0  0  0  0  0  0  0  0  0  0  0
  -92.9170   26.2990    0.8753 H   0  0  0  0  0  0  0  0  0  0  0  0
  -85.6967   27.3705    1.8431 C   0  0  0  0  0  0  0  0  0  0  0  0
  -85.6314   28.5777    1.2191 C   0  0  0  0  0  0  0  0  0  0  0  0
  -84.5276   29.3301    1.3781 C   0  0  0  0  0  0  0  0  0  0  0  0
  -83.5297   28.8260    2.1656 C   0  0  0  0  0  0  0  0  0  0  0  0
  -84.1540   27.3280    2.6586 S   0  0  0  0  0  0  0  0  0  0  0  0
  -84.3527   30.6722    0.7376 C   0  0  0  0  0  0  0  0  0  0  0  0
  -83.1067   31.1446    0.4162 C   0  0  0  0  0  0  0  0  0  0  0  0
  -82.9331   32.3831   -0.1764 C   0  0  0  0  0  0  0  0  0  0  0  0
  -84.0188   33.1653   -0.4538 C   0  0  0  0  0  0  0  0  0  0  0  0
  -83.9042   34.4245   -1.0512 O   0  0  0  0  0  0  0  0  0  0  0  0
  -85.2831   32.7182   -0.1427 C   0  0  0  0  0  0  0  0  0  0  0  0
  -85.4411   31.4645    0.4556 C   0  0  0  0  0  0  0  0  0  0  0  0
  -83.7991   35.2257   -0.4110 H   0  0  0  0  0  0  0  0  0  0  0  0
  3  4  1  0  0  0
  4  5  2  0  0  0
  5  1  1  0  0  0
  1 14  1  0  0  0
 14 15  2  0  0  0
 15 16  1  0  0  0
 16 17  2  0  0  0
 17 18  1  0  0  0
 16 19  1  0  0  0
 19 20  2  0  0  0
 20 21  1  0  0  0
 21 22  2  0  0  0
 22 23  1  0  0  0
 22 24  1  0  0  0
 24 25  2  0  0  0
  5  6  1  0  0  0
  6  7  2  0  0  0
  7  8  1  0  0  0
  8  9  1  0  0  0
  9 10  1  0  0  0
 10 11  2  0  0  0
 11 12  1  0  0  0
 12  4  1  0  0  0
 18 14  1  0  0  0
 25 19  1  0  0  0
 12  8  2  0  0  0
  1  2  1  0  0  0
 23 26  1  0  0  0
  9 13  1  0  0  0
M  END
> <minimizedAffinity>
-7.87107

> <CNNscore>
0.2627163827

> <CNNaffinity>
6.1619348526

> <CNN_VS>
1.6188412905

> <CNNaffinity_variance>
0.0578425601

$$$$
[H]Oc1c([H])c([H])c(-c2c([H])sc(N([H])c3c([H])nc4c(c([H])c([H])n4[H])c3C([H])([H])[H])c2[H])c([H])c1[H]


 26 29  0  0  0  0  0  0  0  0999 V2000
  -85.8127   32.1767   -0.4358 N   0  0  0  0  0  0  0  0  0  0  0  0
  -85.1839   33.0469   -0.2153 H   0  0  0  0  0  0  0  0  0  0  0  0
  -83.2084   31.7933    0.3831 C   0  0  0  0  0  0  0  0  0  0  0  0
  -84.2338   30.7813    0.6934 C   0  0  0  0  0  0  0  0  0  0  0  0
  -85.5421   31.0087    0.2314 C   0  0  0  0  0  0  0  0  0  0  0  0
  -86.4336   30.0359    0.5521 C   0  0  0  0  0  0  0  0  0  0  0  0
  -86.1038   28.9110    1.2679 N   0  0  0  0  0  0  0  0  0  0  0  0
  -84.8569   28.7166    1.6950 C   0  0  0  0  0  0  0  0  0  0  0  0
  -84.2611   27.7177    2.4081 N   0  0  0  0  0  0  0  0  0  0  0  0
  -82.9608   28.0072    2.5771 C   0  0  0  0  0  0  0  0  0  0  0  0
  -82.7180   29.2031    1.9672 C   0  0  0  0  0  0  0  0  0  0  0  0
  -83.9029   29.6573    1.4097 C   0  0  0  0  0  0  0  0  0  0  0  0
  -84.7504   26.8574    2.7667 H   0  0  0  0  0  0  0  0  0  0  0  0
  -86.8024   32.5147   -1.4129 C   0  0  0  0  0  0  0  0  0  0  0  0
  -87.8847   31.8591   -1.9127 C   0  0  0  0  0  0  0  0  0  0  0  0
  -88.6612   32.4850   -2.8152 C   0  0  0  0  0  0  0  0  0  0  0  0
  -88.3074   33.7553   -3.1776 C   0  0  0  0  0  0  0  0  0  0  0  0
  -86.9121   34.0391   -2.2560 S   0  0  0  0  0  0  0  0  0  0  0  0
  -89.8744   31.8560   -3.4274 C   0  0  0  0  0  0  0  0  0  0  0  0
  -90.6277   32.5291   -4.3540 C   0  0  0  0  0  0  0  0  0  0  0  0
  -91.7505   31.9575   -4.9266 C   0  0  0  0  0  0  0  0  0  0  0  0
  -92.1303   30.6940   -4.5707 C   0  0  0  0  0  0  0  0  0  0  0  0
  -93.2548   30.0663   -5.1157 O   0  0  0  0  0  0  0  0  0  0  0  0
  -91.3939   29.9929   -3.6427 C   0  0  0  0  0  0  0  0  0  0  0  0
  -90.2622   30.5847   -3.0737 C   0  0  0  0  0  0  0  0  0  0  0  0
  -94.1449   30.2095   -4.6157 H   0  0  0  0  0  0  0  0  0  0  0  0
  3  4  1  0  0  0
  4  5  2  0  0  0
  5  1  1  0  0  0
  1 14  1  0  0  0
 14 15  2  0  0  0
 15 16  1  0  0  0
 16 17  2  0  0  0
 17 18  1  0  0  0
 16 19  1  0  0  0
 19 20  2  0  0  0
 20 21  1  0  0  0
 21 22  2  0  0  0
 22 23  1  0  0  0
 22 24  1  0  0  0
 24 25  2  0  0  0
  5  6  1  0  0  0
  6  7  2  0  0  0
  7  8  1  0  0  0
  8  9  1  0  0  0
  9 10  1  0  0  0
 10 11  2  0  0  0
 11 12  1  0  0  0
 12  4  1  0  0  0
 18 14  1  0  0  0
 25 19  1  0  0  0
 12  8  2  0  0  0
  1  2  1  0  0  0
 23 26  1  0  0  0
  9 13  1  0  0  0
M  END
> <minimizedAffinity>
-7.75622

> <CNNscore>
0.2452248782

> <CNNaffinity>
6.0879049301

> <CNN_VS>
1.4929057360

> <CNNaffinity_variance>
0.3353528380

$$$$
[H]Oc1c([H])c([H])c(-c2c([H])sc(N([H])c3c([H])nc4c(c([H])c([H])n4[H])c3C([H])([H])[H])c2[H])c([H])c1[H]


 26 29  0  0  0  0  0  0  0  0999 V2000
  -88.3879   32.6968   -1.0801 N   0  0  0  0  0  0  0  0  0  0  0  0
  -88.5593   33.7732   -0.9647 H   0  0  0  0  0  0  0  0  0  0  0  0
  -89.2665   33.4692   -3.5764 C   0  0  0  0  0  0  0  0  0  0  0  0
  -89.8538   32.2858   -2.9233 C   0  0  0  0  0  0  0  0  0  0  0  0
  -89.3919   31.9473   -1.6391 C   0  0  0  0  0  0  0  0  0  0  0  0
  -89.9770   30.8478   -1.0980 C   0  0  0  0  0  0  0  0  0  0  0  0
  -90.9456   30.1124   -1.7363 N   0  0  0  0  0  0  0  0  0  0  0  0
  -91.3681   30.4527   -2.9530 C   0  0  0  0  0  0  0  0  0  0  0  0
  -92.2931   29.9185   -3.8018 N   0  0  0  0  0  0  0  0  0  0  0  0
  -92.3407   30.6518   -4.9256 C   0  0  0  0  0  0  0  0  0  0  0  0
  -91.4382   31.6669   -4.7988 C   0  0  0  0  0  0  0  0  0  0  0  0
  -90.8217   31.5509   -3.5627 C   0  0  0  0  0  0  0  0  0  0  0  0
  -92.8749   29.0645   -3.6004 H   0  0  0  0  0  0  0  0  0  0  0  0
  -87.0893   32.3461   -0.5909 C   0  0  0  0  0  0  0  0  0  0  0  0
  -86.6062   31.2736    0.0926 C   0  0  0  0  0  0  0  0  0  0  0  0
  -85.2915   31.2227    0.3727 C   0  0  0  0  0  0  0  0  0  0  0  0
  -84.5161   32.2660   -0.0521 C   0  0  0  0  0  0  0  0  0  0  0  0
  -85.6340   33.2812   -0.8244 S   0  0  0  0  0  0  0  0  0  0  0  0
  -84.6567   30.0898    1.1181 C   0  0  0  0  0  0  0  0  0  0  0  0
  -83.3167   30.0968    1.4067 C   0  0  0  0  0  0  0  0  0  0  0  0
  -82.7195   29.0554    2.0954 C   0  0  0  0  0  0  0  0  0  0  0  0
  -83.4691   27.9883    2.5036 C   0  0  0  0  0  0  0  0  0  0  0  0
  -82.9202   26.9084    3.2024 O   0  0  0  0  0  0  0  0  0  0  0  0
  -84.8174   27.9525    2.2285 C   0  0  0  0  0  0  0  0  0  0  0  0
  -85.4053   29.0127    1.5319 C   0  0  0  0  0  0  0  0  0  0  0  0
  -82.5663   26.1270    2.6305 H   0  0  0  0  0  0  0  0  0  0  0  0
  3  4  1  0  0  0
  4  5  2  0  0  0
  5  1  1  0  0  0
  1 14  1  0  0  0
 14 15  2  0  0  0
 15 16  1  0  0  0
 16 17  2  0  0  0
 17 18  1  0  0  0
 16 19  1  0  0  0
 19 20  2  0  0  0
 20 21  1  0  0  0
 21 22  2  0  0  0
 22 23  1  0  0  0
 22 24  1  0  0  0
 24 25  2  0  0  0
  5  6  1  0  0  0
  6  7  2  0  0  0
  7  8  1  0  0  0
  8  9  1  0  0  0
  9 10  1  0  0  0
 10 11  2  0  0  0
 11 12  1  0  0  0
 12  4  1  0  0  0
 18 14  1  0  0  0
 25 19  1  0  0  0
 12  8  2  0  0  0
  1  2  1  0  0  0
 23 26  1  0  0  0
  9 13  1  0  0  0
M  END
> <minimizedAffinity>
-8.86069

> <CNNscore>
0.1794969141

> <CNNaffinity>
6.0880465508

> <CNN_VS>
1.0927855968

> <CNNaffinity_variance>
0.0998055786

$$$$
[H]Oc1c([H])c([H])c(-c2c([H])sc(N([H])c3c([H])nc4c(c([H])c([H])n4[H])c3C([H])([H])[H])c2[H])c([H])c1[H]


 26 29  0  0  0  0  0  0  0  0999 V2000
  -87.0439   31.7537   -0.3739 N   0  0  0  0  0  0  0  0  0  0  0  0
  -87.1427   32.6960    0.1771 H   0  0  0  0  0  0  0  0  0  0  0  0
  -84.3758   32.1698    0.1813 C   0  0  0  0  0  0  0  0  0  0  0  0
  -85.0182   30.9004    0.5661 C   0  0  0  0  0  0  0  0  0  0  0  0
  -86.3739   30.7243    0.2377 C   0  0  0  0  0  0  0  0  0  0  0  0
  -86.8998   29.5324    0.6210 C   0  0  0  0  0  0  0  0  0  0  0  0
  -86.1816   28.5622    1.2762 N   0  0  0  0  0  0  0  0  0  0  0  0
  -84.8975   28.7512    1.5766 C   0  0  0  0  0  0  0  0  0  0  0  0
  -83.9643   27.9806    2.2063 N   0  0  0  0  0  0  0  0  0  0  0  0
  -82.7988   28.6456    2.2556 C   0  0  0  0  0  0  0  0  0  0  0  0
  -82.9838   29.8550    1.6521 C   0  0  0  0  0  0  0  0  0  0  0  0
  -84.2992   29.9314    1.2218 C   0  0  0  0  0  0  0  0  0  0  0  0
  -84.1380   27.0162    2.5910 H   0  0  0  0  0  0  0  0  0  0  0  0
  -87.6783   31.8580   -1.6526 C   0  0  0  0  0  0  0  0  0  0  0  0
  -88.2028   32.8994   -2.3537 C   0  0  0  0  0  0  0  0  0  0  0  0
  -88.7008   32.6680   -3.5817 C   0  0  0  0  0  0  0  0  0  0  0  0
  -88.6480   31.3848   -4.0514 C   0  0  0  0  0  0  0  0  0  0  0  0
  -87.9108   30.5431   -2.7767 S   0  0  0  0  0  0  0  0  0  0  0  0
  -89.2999   33.7408   -4.4373 C   0  0  0  0  0  0  0  0  0  0  0  0
  -89.9180   33.4365   -5.6224 C   0  0  0  0  0  0  0  0  0  0  0  0
  -90.4756   34.4196   -6.4210 C   0  0  0  0  0  0  0  0  0  0  0  0
  -90.4168   35.7287   -6.0334 C   0  0  0  0  0  0  0  0  0  0  0  0
  -90.9624   36.7639   -6.7992 O   0  0  0  0  0  0  0  0  0  0  0  0
  -89.8027   36.0657   -4.8484 C   0  0  0  0  0  0  0  0  0  0  0  0
  -89.2444   35.0604   -4.0532 C   0  0  0  0  0  0  0  0  0  0  0  0
  -90.3357   37.1973   -7.4936 H   0  0  0  0  0  0  0  0  0  0  0  0
  3  4  1  0  0  0
  4  5  2  0  0  0
  5  1  1  0  0  0
  1 14  1  0  0  0
 14 15  2  0  0  0
 15 16  1  0  0  0
 16 17  2  0  0  0
 17 18  1  0  0  0
 16 19  1  0  0  0
 19 20  2  0  0  0
 20 21  1  0  0  0
 21 22  2  0  0  0
 22 23  1  0  0  0
 22 24  1  0  0  0
 24 25  2  0  0  0
  5  6  1  0  0  0
  6  7  2  0  0  0
  7  8  1  0  0  0
  8  9  1  0  0  0
  9 10  1  0  0  0
 10 11  2  0  0  0
 11 12  1  0  0  0
 12  4  1  0  0  0
 18 14  1  0  0  0
 25 19  1  0  0  0
 12  8  2  0  0  0
  1  2  1  0  0  0
 23 26  1  0  0  0
  9 13  1  0  0  0
M  END
> <minimizedAffinity>
-7.36792

> <CNNscore>
0.1711783856

> <CNNaffinity>
5.6749172211

> <CNN_VS>
0.9714231491

> <CNNaffinity_variance>
0.1487005651

$$$$
[H]Oc1c([H])c([H])c(-c2c([H])sc(N([H])c3c([H])nc4c(c([H])c([H])n4[H])c3C([H])([H])[H])c2[H])c([H])c1[H]


 26 29  0  0  0  0  0  0  0  0999 V2000
  -87.1751   26.2559    1.3321 N   0  0  0  0  0  0  0  0  0  0  0  0
  -87.0603   25.5430    2.1566 H   0  0  0  0  0  0  0  0  0  0  0  0
  -89.5972   25.5115    2.4181 C   0  0  0  0  0  0  0  0  0  0  0  0
  -89.4705   25.6996    0.9619 C   0  0  0  0  0  0  0  0  0  0  0  0
  -88.2085   26.0532    0.4527 C   0  0  0  0  0  0  0  0  0  0  0  0
  -88.1647   26.2088   -0.8956 C   0  0  0  0  0  0  0  0  0  0  0  0
  -89.2539   26.0372   -1.7146 N   0  0  0  0  0  0  0  0  0  0  0  0
  -90.4400   25.7015   -1.2094 C   0  0  0  0  0  0  0  0  0  0  0  0
  -91.6614   25.4713   -1.7719 N   0  0  0  0  0  0  0  0  0  0  0  0
  -92.5428   25.1592   -0.8081 C   0  0  0  0  0  0  0  0  0  0  0  0
  -91.8824   25.1888    0.3852 C   0  0  0  0  0  0  0  0  0  0  0  0
  -90.5603   25.5284    0.1442 C   0  0  0  0  0  0  0  0  0  0  0  0
  -91.8726   25.5310   -2.8015 H   0  0  0  0  0  0  0  0  0  0  0  0
  -86.1602   27.2627    1.4021 C   0  0  0  0  0  0  0  0  0  0  0  0
  -86.0137   28.4843    0.8214 C   0  0  0  0  0  0  0  0  0  0  0  0
  -84.9360   29.2256    1.1352 C   0  0  0  0  0  0  0  0  0  0  0  0
  -84.0455   28.6962    2.0280 C   0  0  0  0  0  0  0  0  0  0  0  0
  -84.7312   27.1906    2.4019 S   0  0  0  0  0  0  0  0  0  0  0  0
  -84.6783   30.5817    0.5551 C   0  0  0  0  0  0  0  0  0  0  0  0
  -85.7132   31.4245    0.2422 C   0  0  0  0  0  0  0  0  0  0  0  0
  -85.4869   32.6801   -0.2939 C   0  0  0  0  0  0  0  0  0  0  0  0
  -84.2082   33.1043   -0.5229 C   0  0  0  0  0  0  0  0  0  0  0  0
  -83.9194   34.3617   -1.0624 O   0  0  0  0  0  0  0  0  0  0  0  0
  -83.1480   32.2805   -0.2190 C   0  0  0  0  0  0  0  0  0  0  0  0
  -83.3939   31.0150    0.3221 C   0  0  0  0  0  0  0  0  0  0  0  0
  -83.8589   34.4147   -2.0901 H   0  0  0  0  0  0  0  0  0  0  0  0
  3  4  1  0  0  0
  4  5  2  0  0  0
  5  1  1  0  0  0
  1 14  1  0  0  0
 14 15  2  0  0  0
 15 16  1  0  0  0
 16 17  2  0  0  0
 17 18  1  0  0  0
 16 19  1  0  0  0
 19 20  2  0  0  0
 20 21  1  0  0  0
 21 22  2  0  0  0
 22 23  1  0  0  0
 22 24  1  0  0  0
 24 25  2  0  0  0
  5  6  1  0  0  0
  6  7  2  0  0  0
  7  8  1  0  0  0
  8  9  1  0  0  0
  9 10  1  0  0  0
 10 11  2  0  0  0
 11 12  1  0  0  0
 12  4  1  0  0  0
 18 14  1  0  0  0
 25 19  1  0  0  0
 12  8  2  0  0  0
  1  2  1  0  0  0
 23 26  1  0  0  0
  9 13  1  0  0  0
M  END
> <minimizedAffinity>
-7.47465

> <CNNscore>
0.1566402763

> <CNNaffinity>
6.0050697327

> <CNN_VS>
0.9406358004

> <CNNaffinity_variance>
0.0582062304

$$$$
[H]Oc1c([H])c([H])c(-c2c([H])sc(N([H])c3c([H])nc4c(c([H])c([H])n4[H])c3C([H])([H])[H])c2[H])c([H])c1[H]


 26 29  0  0  0  0  0  0  0  0999 V2000
  -87.5018   28.4403    0.9263 N   0  0  0  0  0  0  0  0  0  0  0  0
  -87.2957   27.7730    1.7710 H   0  0  0  0  0  0  0  0  0  0  0  0
  -84.9642   28.1442    1.9621 C   0  0  0  0  0  0  0  0  0  0  0  0
  -85.3017   29.3425    1.1735 C   0  0  0  0  0  0  0  0  0  0  0  0
  -86.6163   29.4611    0.6890 C   0  0  0  0  0  0  0  0  0  0  0  0
  -86.8566   30.5894   -0.0275 C   0  0  0  0  0  0  0  0  0  0  0  0
  -85.9062   31.5511   -0.2693 N   0  0  0  0  0  0  0  0  0  0  0  0
  -84.6669   31.4173    0.2006 C   0  0  0  0  0  0  0  0  0  0  0  0
  -83.5490   32.1949    0.1160 N   0  0  0  0  0  0  0  0  0  0  0  0
  -82.5419   31.5981    0.7738 C   0  0  0  0  0  0  0  0  0  0  0  0
  -83.0161   30.4262    1.2862 C   0  0  0  0  0  0  0  0  0  0  0  0
  -84.3505   30.3031    0.9318 C   0  0  0  0  0  0  0  0  0  0  0  0
  -83.4921   33.1174   -0.3880 H   0  0  0  0  0  0  0  0  0  0  0  0
  -88.7049   28.0417    0.2614 C   0  0  0  0  0  0  0  0  0  0  0  0
  -89.0874   26.9017   -0.3752 C   0  0  0  0  0  0  0  0  0  0  0  0
  -90.3356   26.8242   -0.8706 C   0  0  0  0  0  0  0  0  0  0  0  0
  -91.1491   27.9103   -0.7012 C   0  0  0  0  0  0  0  0  0  0  0  0
  -90.1578   29.0011    0.1380 S   0  0  0  0  0  0  0  0  0  0  0  0
  -90.8582   25.6179   -1.5874 C   0  0  0  0  0  0  0  0  0  0  0  0
  -91.9084   25.7162   -2.4629 C   0  0  0  0  0  0  0  0  0  0  0  0
  -92.3993   24.6082   -3.1312 C   0  0  0  0  0  0  0  0  0  0  0  0
  -91.8353   23.3809   -2.9243 C   0  0  0  0  0  0  0  0  0  0  0  0
  -92.2892   22.2271   -3.5711 O   0  0  0  0  0  0  0  0  0  0  0  0
  -90.7793   23.2503   -2.0509 C   0  0  0  0  0  0  0  0  0  0  0  0
  -90.2952   24.3796   -1.3838 C   0  0  0  0  0  0  0  0  0  0  0  0
  -93.0295   21.6951   -3.0898 H   0  0  0  0  0  0  0  0  0  0  0  0
  3  4  1  0  0  0
  4  5  2  0  0  0
  5  1  1  0  0  0
  1 14  1  0  0  0
 14 15  2  0  0  0
 15 16  1  0  0  0
 16 17  2  0  0  0
 17 18  1  0  0  0
 16 19  1  0  0  0
 19 20  2  0  0  0
 20 21  1  0  0  0
 21 22  2  0  0  0
 22 23  1  0  0  0
 22 24  1  0  0  0
 24 25  2  0  0  0
  5  6  1  0  0  0
  6  7  2  0  0  0
  7  8  1  0  0  0
  8  9  1  0  0  0
  9 10  1  0  0  0
 10 11  2  0  0  0
 11 12  1  0  0  0
 12  4  1  0  0  0
 18 14  1  0  0  0
 25 19  1  0  0  0
 12  8  2  0  0  0
  1  2  1  0  0  0
 23 26  1  0  0  0
  9 13  1  0  0  0
M  END
> <minimizedAffinity>
-7.73273

> <CNNscore>
0.1428778768

> <CNNaffinity>
5.4224472046

> <CNN_VS>
0.7747477293

> <CNNaffinity_variance>
0.2890015244

$$$$
[H]c1nc2c(c([H])c1[H])c(-c1c([H])c([H])c3c(c(N([H])[H])nn3[H])c1[H])c([H])n2[C@]1([H])C([H])([H])OC([H])([H])C([H])([H])C1([H])[H]


 28 32  0  0  0  0  0  0  0  0999 V2000
  -86.6365   28.9487    0.8925 C   0  0  0  0  0  0  0  0  0  0  0  0
  -86.8289   27.7011    1.4645 C   0  0  0  0  0  0  0  0  0  0  0  0
  -88.0886   27.2855    1.2862 N   0  0  0  0  0  0  0  0  0  0  0  0
  -88.7372   28.2519    0.5972 C   0  0  0  0  0  0  0  0  0  0  0  0
  -90.0197   28.3023    0.1769 N   0  0  0  0  0  0  0  0  0  0  0  0
  -90.4739   29.3794   -0.5073 C   0  0  0  0  0  0  0  0  0  0  0  0
  -89.6553   30.4497   -0.7960 C   0  0  0  0  0  0  0  0  0  0  0  0
  -88.3385   30.3892   -0.3601 C   0  0  0  0  0  0  0  0  0  0  0  0
  -87.8496   29.2972    0.3421 C   0  0  0  0  0  0  0  0  0  0  0  0
  -84.8383   33.5550   -1.4676 N   0  0  0  0  0  0  0  0  0  0  0  0
  -83.9523   32.8380   -0.6166 C   0  0  0  0  0  0  0  0  0  0  0  0
  -82.6862   33.1324   -0.2906 N   0  0  0  0  0  0  0  0  0  0  0  0
  -82.1871   32.2289    0.5259 N   0  0  0  0  0  0  0  0  0  0  0  0
  -83.1129   31.2919    0.7746 C   0  0  0  0  0  0  0  0  0  0  0  0
  -83.1217   30.1299    1.5552 C   0  0  0  0  0  0  0  0  0  0  0  0
  -84.2832   29.3899    1.5733 C   0  0  0  0  0  0  0  0  0  0  0  0
  -85.4214   29.7507    0.8583 C   0  0  0  0  0  0  0  0  0  0  0  0
  -85.4023   30.8869    0.0993 C   0  0  0  0  0  0  0  0  0  0  0  0
  -84.2357   31.6594    0.0614 C   0  0  0  0  0  0  0  0  0  0  0  0
  -84.8297   34.6035   -1.4269 H   0  0  0  0  0  0  0  0  0  0  0  0
  -85.4716   33.0531   -2.1069 H   0  0  0  0  0  0  0  0  0  0  0  0
  -81.2177   32.1982    0.9484 H   0  0  0  0  0  0  0  0  0  0  0  0
  -88.6851   26.0277    1.7385 C   0  0  0  0  0  0  0  0  0  0  0  0
  -89.7910   26.2665    2.7174 C   0  0  0  0  0  0  0  0  0  0  0  0
  -90.4973   24.9435    2.9515 C   0  0  0  0  0  0  0  0  0  0  0  0
  -91.0631   24.5080    1.6038 C   0  0  0  0  0  0  0  0  0  0  0  0
  -89.9859   24.2332    0.7843 O   0  0  0  0  0  0  0  0  0  0  0  0
  -89.2356   25.3465    0.5064 C   0  0  0  0  0  0  0  0  0  0  0  0
 10 11  1  0  0  0
 11 12  2  0  0  0
 12 13  1  0  0  0
 13 14  1  0  0  0
 14 15  2  0  0  0
 15 16  1  0  0  0
 16 17  2  0  0  0
 17 18  1  0  0  0
 18 19  2  0  0  0
 17  1  1  0  0  0
  1  2  2  0  0  0
  2  3  1  0  0  0
  3 23  1  0  0  0
 23 24  1  0  0  0
 24 25  1  0  0  0
 25 26  1  0  0  0
 26 27  1  0  0  0
 27 28  1  0  0  0
  3  4  1  0  0  0
  4  5  2  0  0  0
  5  6  1  0  0  0
  6  7  2  0  0  0
  7  8  1  0  0  0
  8  9  2  0  0  0
 19 11  1  0  0  0
  9  1  1  0  0  0
 19 14  1  0  0  0
 28 23  1  0  0  0
  9  4  1  0  0  0
 10 20  1  0  0  0
 10 21  1  0  0  0
 13 22  1  0  0  0
M  END
> <minimizedAffinity>
-9.55959

> <CNNscore>
0.8758040071

> <CNNaffinity>
6.9951972961

> <CNN_VS>
6.1264219284

> <CNNaffinity_variance>
0.1254905462

$$$$
[H]c1nc2c(c([H])c1[H])c(-c1c([H])c([H])c3c(c(N([H])[H])nn3[H])c1[H])c([H])n2[C@]1([H])C([H])([H])OC([H])([H])C([H])([H])C1([H])[H]


 28 32  0  0  0  0  0  0  0  0999 V2000
  -86.6298   28.8275    0.8053 C   0  0  0  0  0  0  0  0  0  0  0  0
  -87.2734   28.2210    1.8724 C   0  0  0  0  0  0  0  0  0  0  0  0
  -88.3561   27.5529    1.4570 N   0  0  0  0  0  0  0  0  0  0  0  0
  -88.4370   27.7119    0.1163 C   0  0  0  0  0  0  0  0  0  0  0  0
  -89.3486   27.2339   -0.7581 N   0  0  0  0  0  0  0  0  0  0  0  0
  -89.2440   27.5163   -2.0786 C   0  0  0  0  0  0  0  0  0  0  0  0
  -88.2174   28.2916   -2.5726 C   0  0  0  0  0  0  0  0  0  0  0  0
  -87.2849   28.7786   -1.6664 C   0  0  0  0  0  0  0  0  0  0  0  0
  -87.3702   28.5032   -0.3094 C   0  0  0  0  0  0  0  0  0  0  0  0
  -84.8128   33.4999   -1.4060 N   0  0  0  0  0  0  0  0  0  0  0  0
  -83.9430   32.7724   -0.5471 C   0  0  0  0  0  0  0  0  0  0  0  0
  -82.6890   33.0708   -0.1811 N   0  0  0  0  0  0  0  0  0  0  0  0
  -82.2033   32.1541    0.6289 N   0  0  0  0  0  0  0  0  0  0  0  0
  -83.1264   31.2038    0.8324 C   0  0  0  0  0  0  0  0  0  0  0  0
  -83.1451   30.0250    1.5872 C   0  0  0  0  0  0  0  0  0  0  0  0
  -84.2997   29.2746    1.5582 C   0  0  0  0  0  0  0  0  0  0  0  0
  -85.4218   29.6408    0.8209 C   0  0  0  0  0  0  0  0  0  0  0  0
  -85.3931   30.7934    0.0874 C   0  0  0  0  0  0  0  0  0  0  0  0
  -84.2333   31.5768    0.0974 C   0  0  0  0  0  0  0  0  0  0  0  0
  -84.8151   34.5472   -1.3425 H   0  0  0  0  0  0  0  0  0  0  0  0
  -85.4241   33.0064   -2.0727 H   0  0  0  0  0  0  0  0  0  0  0  0
  -81.2452   32.1228    1.0765 H   0  0  0  0  0  0  0  0  0  0  0  0
  -89.2973   26.7845    2.2732 C   0  0  0  0  0  0  0  0  0  0  0  0
  -88.5836   25.8824    3.2298 C   0  0  0  0  0  0  0  0  0  0  0  0
  -89.6154   25.3065    4.1825 C   0  0  0  0  0  0  0  0  0  0  0  0
  -90.2313   26.4889    4.9232 C   0  0  0  0  0  0  0  0  0  0  0  0
  -90.9334   27.2271    3.9907 O   0  0  0  0  0  0  0  0  0  0  0  0
  -90.1199   27.7925    3.0430 C   0  0  0  0  0  0  0  0  0  0  0  0
 10 11  1  0  0  0
 11 12  2  0  0  0
 12 13  1  0  0  0
 13 14  1  0  0  0
 14 15  2  0  0  0
 15 16  1  0  0  0
 16 17  2  0  0  0
 17 18  1  0  0  0
 18 19  2  0  0  0
 17  1  1  0  0  0
  1  2  2  0  0  0
  2  3  1  0  0  0
  3 23  1  0  0  0
 23 24  1  0  0  0
 24 25  1  0  0  0
 25 26  1  0  0  0
 26 27  1  0  0  0
 27 28  1  0  0  0
  3  4  1  0  0  0
  4  5  2  0  0  0
  5  6  1  0  0  0
  6  7  2  0  0  0
  7  8  1  0  0  0
  8  9  2  0  0  0
 19 11  1  0  0  0
  9  1  1  0  0  0
 19 14  1  0  0  0
 28 23  1  0  0  0
  9  4  1  0  0  0
 10 20  1  0  0  0
 10 21  1  0  0  0
 13 22  1  0  0  0
M  END
> <minimizedAffinity>
-10.19725

> <CNNscore>
0.8449578881

> <CNNaffinity>
6.8922128677

> <CNN_VS>
5.8236298561

> <CNNaffinity_variance>
0.1227512136

$$$$
[H]c1nc2c(c([H])c1[H])c(-c1c([H])c([H])c3c(c(N([H])[H])nn3[H])c1[H])c([H])n2[C@]1([H])C([H])([H])OC([H])([H])C([H])([H])C1([H])[H]


 28 32  0  0  0  0  0  0  0  0999 V2000
  -87.1628   29.1608    0.2374 C   0  0  0  0  0  0  0  0  0  0  0  0
  -88.1391   29.4027   -0.7161 C   0  0  0  0  0  0  0  0  0  0  0  0
  -89.1586   28.5462   -0.5803 N   0  0  0  0  0  0  0  0  0  0  0  0
  -88.8654   27.7337    0.4605 C   0  0  0  0  0  0  0  0  0  0  0  0
  -89.5750   26.7125    0.9874 N   0  0  0  0  0  0  0  0  0  0  0  0
  -89.0920   26.0173    2.0447 C   0  0  0  0  0  0  0  0  0  0  0  0
  -87.8749   26.3220    2.6146 C   0  0  0  0  0  0  0  0  0  0  0  0
  -87.1523   27.3733    2.0664 C   0  0  0  0  0  0  0  0  0  0  0  0
  -87.6256   28.1004    0.9838 C   0  0  0  0  0  0  0  0  0  0  0  0
  -84.6577   33.6834   -1.5774 N   0  0  0  0  0  0  0  0  0  0  0  0
  -83.9815   32.8676   -0.6284 C   0  0  0  0  0  0  0  0  0  0  0  0
  -82.7687   33.0462   -0.0871 N   0  0  0  0  0  0  0  0  0  0  0  0
  -82.4812   32.0773    0.7560 N   0  0  0  0  0  0  0  0  0  0  0  0
  -83.5030   31.2110    0.8060 C   0  0  0  0  0  0  0  0  0  0  0  0
  -83.7283   30.0275    1.5187 C   0  0  0  0  0  0  0  0  0  0  0  0
  -84.9288   29.3847    1.3123 C   0  0  0  0  0  0  0  0  0  0  0  0
  -85.9022   29.8616    0.4395 C   0  0  0  0  0  0  0  0  0  0  0  0
  -85.6722   31.0180   -0.2515 C   0  0  0  0  0  0  0  0  0  0  0  0
  -84.4610   31.6934   -0.0623 C   0  0  0  0  0  0  0  0  0  0  0  0
  -84.5774   34.7256   -1.4862 H   0  0  0  0  0  0  0  0  0  0  0  0
  -85.2118   33.2572   -2.3343 H   0  0  0  0  0  0  0  0  0  0  0  0
  -81.6004   31.9530    1.3288 H   0  0  0  0  0  0  0  0  0  0  0  0
  -90.3766   28.4745   -1.3888 C   0  0  0  0  0  0  0  0  0  0  0  0
  -91.4812   29.2858   -0.7887 C   0  0  0  0  0  0  0  0  0  0  0  0
  -92.6145   29.3442   -1.7967 C   0  0  0  0  0  0  0  0  0  0  0  0
  -92.0584   30.0357   -3.0371 C   0  0  0  0  0  0  0  0  0  0  0  0
  -91.1043   29.1938   -3.5741 O   0  0  0  0  0  0  0  0  0  0  0  0
  -90.0214   29.0281   -2.7499 C   0  0  0  0  0  0  0  0  0  0  0  0
 10 11  1  0  0  0
 11 12  2  0  0  0
 12 13  1  0  0  0
 13 14  1  0  0  0
 14 15  2  0  0  0
 15 16  1  0  0  0
 16 17  2  0  0  0
 17 18  1  0  0  0
 18 19  2  0  0  0
 17  1  1  0  0  0
  1  2  2  0  0  0
  2  3  1  0  0  0
  3 23  1  0  0  0
 23 24  1  0  0  0
 24 25  1  0  0  0
 25 26  1  0  0  0
 26 27  1  0  0  0
 27 28  1  0  0  0
  3  4  1  0  0  0
  4  5  2  0  0  0
  5  6  1  0  0  0
  6  7  2  0  0  0
  7  8  1  0  0  0
  8  9  2  0  0  0
 19 11  1  0  0  0
  9  1  1  0  0  0
 19 14  1  0  0  0
 28 23  1  0  0  0
  9  4  1  0  0  0
 10 20  1  0  0  0
 10 21  1  0  0  0
 13 22  1  0  0  0
M  END
> <minimizedAffinity>
-8.88908

> <CNNscore>
0.7218465805

> <CNNaffinity>
6.8316559792

> <CNN_VS>
4.9314074516

> <CNNaffinity_variance>
0.2592754960

$$$$
[H]c1nc2c(c([H])c1[H])c(-c1c([H])c([H])c3c(c(N([H])[H])nn3[H])c1[H])c([H])n2[C@]1([H])C([H])([H])OC([H])([H])C([H])([H])C1([H])[H]


 28 32  0  0  0  0  0  0  0  0999 V2000
  -86.9615   31.2705   -0.6289 C   0  0  0  0  0  0  0  0  0  0  0  0
  -86.9072   32.4446   -1.3633 C   0  0  0  0  0  0  0  0  0  0  0  0
  -88.0795   32.6854   -1.9623 N   0  0  0  0  0  0  0  0  0  0  0  0
  -88.9157   31.6756   -1.6300 C   0  0  0  0  0  0  0  0  0  0  0  0
  -90.2023   31.4659   -1.9836 N   0  0  0  0  0  0  0  0  0  0  0  0
  -90.8663   30.3742   -1.5344 C   0  0  0  0  0  0  0  0  0  0  0  0
  -90.2620   29.4491   -0.7110 C   0  0  0  0  0  0  0  0  0  0  0  0
  -88.9393   29.6728   -0.3527 C   0  0  0  0  0  0  0  0  0  0  0  0
  -88.2380   30.7832   -0.7995 C   0  0  0  0  0  0  0  0  0  0  0  0
  -86.0410   26.5303    1.9605 N   0  0  0  0  0  0  0  0  0  0  0  0
  -85.0363   27.5361    2.0089 C   0  0  0  0  0  0  0  0  0  0  0  0
  -83.8447   27.4977    2.6206 N   0  0  0  0  0  0  0  0  0  0  0  0
  -83.1864   28.6233    2.4423 N   0  0  0  0  0  0  0  0  0  0  0  0
  -83.9244   29.4590    1.6981 C   0  0  0  0  0  0  0  0  0  0  0  0
  -83.7182   30.7572    1.2166 C   0  0  0  0  0  0  0  0  0  0  0  0
  -84.7247   31.3183    0.4621 C   0  0  0  0  0  0  0  0  0  0  0  0
  -85.9115   30.6531    0.1694 C   0  0  0  0  0  0  0  0  0  0  0  0
  -86.1028   29.3861    0.6443 C   0  0  0  0  0  0  0  0  0  0  0  0
  -85.0974   28.7898    1.4142 C   0  0  0  0  0  0  0  0  0  0  0  0
  -85.7408   25.5302    1.8571 H   0  0  0  0  0  0  0  0  0  0  0  0
  -87.0380   26.7820    2.0258 H   0  0  0  0  0  0  0  0  0  0  0  0
  -82.2265   28.8805    2.8054 H   0  0  0  0  0  0  0  0  0  0  0  0
  -88.4256   33.8184   -2.8218 C   0  0  0  0  0  0  0  0  0  0  0  0
  -87.4056   34.9089   -2.7284 C   0  0  0  0  0  0  0  0  0  0  0  0
  -87.7148   35.9275   -3.8104 C   0  0  0  0  0  0  0  0  0  0  0  0
  -87.5933   35.1967   -5.1434 C   0  0  0  0  0  0  0  0  0  0  0  0
  -88.6112   34.2642   -5.1860 O   0  0  0  0  0  0  0  0  0  0  0  0
  -88.4718   33.2858   -4.2358 C   0  0  0  0  0  0  0  0  0  0  0  0
 10 11  1  0  0  0
 11 12  2  0  0  0
 12 13  1  0  0  0
 13 14  1  0  0  0
 14 15  2  0  0  0
 15 16  1  0  0  0
 16 17  2  0  0  0
 17 18  1  0  0  0
 18 19  2  0  0  0
 17  1  1  0  0  0
  1  2  2  0  0  0
  2  3  1  0  0  0
  3 23  1  0  0  0
 23 24  1  0  0  0
 24 25  1  0  0  0
 25 26  1  0  0  0
 26 27  1  0  0  0
 27 28  1  0  0  0
  3  4  1  0  0  0
  4  5  2  0  0  0
  5  6  1  0  0  0
  6  7  2  0  0  0
  7  8  1  0  0  0
  8  9  2  0  0  0
 19 11  1  0  0  0
  9  1  1  0  0  0
 19 14  1  0  0  0
 28 23  1  0  0  0
  9  4  1  0  0  0
 10 20  1  0  0  0
 10 21  1  0  0  0
 13 22  1  0  0  0
M  END
> <minimizedAffinity>
-9.19019

> <CNNscore>
0.4857670963

> <CNNaffinity>
6.4562096596

> <CNN_VS>
3.1362142563

> <CNNaffinity_variance>
0.1956645250

$$$$
[H]c1nc2c(c([H])c1[H])c(-c1c([H])c([H])c3c(c(N([H])[H])nn3[H])c1[H])c([H])n2[C@]1([H])C([H])([H])OC([H])([H])C([H])([H])C1([H])[H]


 28 32  0  0  0  0  0  0  0  0999 V2000
  -87.3567   29.0257    0.0282 C   0  0  0  0  0  0  0  0  0  0  0  0
  -87.7953   27.7148    0.1277 C   0  0  0  0  0  0  0  0  0  0  0  0
  -89.0517   27.5987   -0.3185 N   0  0  0  0  0  0  0  0  0  0  0  0
  -89.4527   28.8280   -0.7153 C   0  0  0  0  0  0  0  0  0  0  0  0
  -90.6335   29.2266   -1.2359 N   0  0  0  0  0  0  0  0  0  0  0  0
  -90.8311   30.5243   -1.5696 C   0  0  0  0  0  0  0  0  0  0  0  0
  -89.8480   31.4736   -1.3926 C   0  0  0  0  0  0  0  0  0  0  0  0
  -88.6374   31.0548   -0.8568 C   0  0  0  0  0  0  0  0  0  0  0  0
  -88.4107   29.7315   -0.5074 C   0  0  0  0  0  0  0  0  0  0  0  0
  -84.2481   33.3640   -1.2120 N   0  0  0  0  0  0  0  0  0  0  0  0
  -83.7553   32.4250   -0.2639 C   0  0  0  0  0  0  0  0  0  0  0  0
  -82.5923   32.4419    0.4016 N   0  0  0  0  0  0  0  0  0  0  0  0
  -82.4887   31.3982    1.1966 N   0  0  0  0  0  0  0  0  0  0  0  0
  -83.5902   30.6423    1.0872 C   0  0  0  0  0  0  0  0  0  0  0  0
  -84.0021   29.4473    1.6887 C   0  0  0  0  0  0  0  0  0  0  0  0
  -85.2326   28.9477    1.3238 C   0  0  0  0  0  0  0  0  0  0  0  0
  -86.0606   29.5768    0.3988 C   0  0  0  0  0  0  0  0  0  0  0  0
  -85.6491   30.7430   -0.1826 C   0  0  0  0  0  0  0  0  0  0  0  0
  -84.4029   31.2749    0.1686 C   0  0  0  0  0  0  0  0  0  0  0  0
  -84.0755   34.3845   -1.0392 H   0  0  0  0  0  0  0  0  0  0  0  0
  -84.7614   33.0456   -2.0467 H   0  0  0  0  0  0  0  0  0  0  0  0
  -81.6872   31.1473    1.8401 H   0  0  0  0  0  0  0  0  0  0  0  0
  -89.8677   26.3851   -0.3797 C   0  0  0  0  0  0  0  0  0  0  0  0
  -89.5964   25.6046   -1.6268 C   0  0  0  0  0  0  0  0  0  0  0  0
  -90.3004   24.2659   -1.4989 C   0  0  0  0  0  0  0  0  0  0  0  0
  -89.6894   23.5669   -0.2890 C   0  0  0  0  0  0  0  0  0  0  0  0
  -90.0475   24.3017    0.8243 O   0  0  0  0  0  0  0  0  0  0  0  0
  -89.4960   25.5568    0.8290 C   0  0  0  0  0  0  0  0  0  0  0  0
 10 11  1  0  0  0
 11 12  2  0  0  0
 12 13  1  0  0  0
 13 14  1  0  0  0
 14 15  2  0  0  0
 15 16  1  0  0  0
 16 17  2  0  0  0
 17 18  1  0  0  0
 18 19  2  0  0  0
 17  1  1  0  0  0
  1  2  2  0  0  0
  2  3  1  0  0  0
  3 23  1  0  0  0
 23 24  1  0  0  0
 24 25  1  0  0  0
 25 26  1  0  0  0
 26 27  1  0  0  0
 27 28  1  0  0  0
  3  4  1  0  0  0
  4  5  2  0  0  0
  5  6  1  0  0  0
  6  7  2  0  0  0
  7  8  1  0  0  0
  8  9  2  0  0  0
 19 11  1  0  0  0
  9  1  1  0  0  0
 19 14  1  0  0  0
 28 23  1  0  0  0
  9  4  1  0  0  0
 10 20  1  0  0  0
 10 21  1  0  0  0
 13 22  1  0  0  0
M  END
> <minimizedAffinity>
-8.46027

> <CNNscore>
0.4770269990

> <CNNaffinity>
6.4919233322

> <CNN_VS>
3.0968227386

> <CNNaffinity_variance>
0.1041613072

$$$$
[H]c1nc2c(c([H])c1[H])c(-c1c([H])c([H])c3c(c(N([H])[H])nn3[H])c1[H])c([H])n2[C@]1([H])C([H])([H])OC([H])([H])C([H])([H])C1([H])[H]


 28 32  0  0  0  0  0  0  0  0999 V2000
  -87.3897   31.3690   -1.1065 C   0  0  0  0  0  0  0  0  0  0  0  0
  -87.2425   32.5850   -1.7550 C   0  0  0  0  0  0  0  0  0  0  0  0
  -88.3545   32.9019   -2.4291 N   0  0  0  0  0  0  0  0  0  0  0  0
  -89.2429   31.9012   -2.2324 C   0  0  0  0  0  0  0  0  0  0  0  0
  -90.5013   31.7570   -2.7012 N   0  0  0  0  0  0  0  0  0  0  0  0
  -91.2301   30.6615   -2.3797 C   0  0  0  0  0  0  0  0  0  0  0  0
  -90.7215   29.6666   -1.5733 C   0  0  0  0  0  0  0  0  0  0  0  0
  -89.4271   29.8232   -1.0959 C   0  0  0  0  0  0  0  0  0  0  0  0
  -88.6609   30.9360   -1.4108 C   0  0  0  0  0  0  0  0  0  0  0  0
  -82.2330   32.0228    0.6266 N   0  0  0  0  0  0  0  0  0  0  0  0
  -82.9489   30.8677    1.0471 C   0  0  0  0  0  0  0  0  0  0  0  0
  -82.5332   29.8697    1.8389 N   0  0  0  0  0  0  0  0  0  0  0  0
  -83.4815   28.9720    2.0034 N   0  0  0  0  0  0  0  0  0  0  0  0
  -84.5727   29.3448    1.3200 C   0  0  0  0  0  0  0  0  0  0  0  0
  -85.8409   28.7780    1.1466 C   0  0  0  0  0  0  0  0  0  0  0  0
  -86.7349   29.4613    0.3522 C   0  0  0  0  0  0  0  0  0  0  0  0
  -86.4265   30.6679   -0.2689 C   0  0  0  0  0  0  0  0  0  0  0  0
  -85.1856   31.2126   -0.0932 C   0  0  0  0  0  0  0  0  0  0  0  0
  -84.2558   30.5408    0.7089 C   0  0  0  0  0  0  0  0  0  0  0  0
  -81.6052   32.4998    1.3189 H   0  0  0  0  0  0  0  0  0  0  0  0
  -82.3315   32.3789   -0.3353 H   0  0  0  0  0  0  0  0  0  0  0  0
  -83.4426   28.0810    2.5726 H   0  0  0  0  0  0  0  0  0  0  0  0
  -88.5971   34.0980   -3.2370 C   0  0  0  0  0  0  0  0  0  0  0  0
  -87.7597   35.2493   -2.7770 C   0  0  0  0  0  0  0  0  0  0  0  0
  -87.8985   36.3621   -3.7999 C   0  0  0  0  0  0  0  0  0  0  0  0
  -87.3672   35.8097   -5.1185 C   0  0  0  0  0  0  0  0  0  0  0  0
  -88.2328   34.8088   -5.5140 O   0  0  0  0  0  0  0  0  0  0  0  0
  -88.2288   33.7378   -4.6582 C   0  0  0  0  0  0  0  0  0  0  0  0
 10 11  1  0  0  0
 11 12  2  0  0  0
 12 13  1  0  0  0
 13 14  1  0  0  0
 14 15  2  0  0  0
 15 16  1  0  0  0
 16 17  2  0  0  0
 17 18  1  0  0  0
 18 19  2  0  0  0
 17  1  1  0  0  0
  1  2  2  0  0  0
  2  3  1  0  0  0
  3 23  1  0  0  0
 23 24  1  0  0  0
 24 25  1  0  0  0
 25 26  1  0  0  0
 26 27  1  0  0  0
 27 28  1  0  0  0
  3  4  1  0  0  0
  4  5  2  0  0  0
  5  6  1  0  0  0
  6  7  2  0  0  0
  7  8  1  0  0  0
  8  9  2  0  0  0
 19 11  1  0  0  0
  9  1  1  0  0  0
 19 14  1  0  0  0
 28 23  1  0  0  0
  9  4  1  0  0  0
 10 20  1  0  0  0
 10 21  1  0  0  0
 13 22  1  0  0  0
M  END
> <minimizedAffinity>
-8.63582

> <CNNscore>
0.4594542980

> <CNNaffinity>
6.4416303635

> <CNN_VS>
2.9596347809

> <CNNaffinity_variance>
0.1599425673

$$$$
[H]c1nc2c(c([H])c1[H])c(-c1c([H])c([H])c3c(c(N([H])[H])nn3[H])c1[H])c([H])n2[C@]1([H])C([H])([H])OC([H])([H])C([H])([H])C1([H])[H]


 28 32  0  0  0  0  0  0  0  0999 V2000
  -86.8761   33.0792   -1.7454 C   0  0  0  0  0  0  0  0  0  0  0  0
  -87.0396   34.2905   -2.3986 C   0  0  0  0  0  0  0  0  0  0  0  0
  -88.2309   34.3461   -3.0061 N   0  0  0  0  0  0  0  0  0  0  0  0
  -88.8626   33.1757   -2.7603 C   0  0  0  0  0  0  0  0  0  0  0  0
  -90.0824   32.7513   -3.1553 N   0  0  0  0  0  0  0  0  0  0  0  0
  -90.5306   31.5252   -2.7944 C   0  0  0  0  0  0  0  0  0  0  0  0
  -89.7687   30.6763   -2.0212 C   0  0  0  0  0  0  0  0  0  0  0  0
  -88.5161   31.1208   -1.6197 C   0  0  0  0  0  0  0  0  0  0  0  0
  -88.0350   32.3722   -1.9762 C   0  0  0  0  0  0  0  0  0  0  0  0
  -85.7359   29.1740    1.9249 N   0  0  0  0  0  0  0  0  0  0  0  0
  -84.6968   30.0644    1.5366 C   0  0  0  0  0  0  0  0  0  0  0  0
  -83.4233   30.0939    1.9524 N   0  0  0  0  0  0  0  0  0  0  0  0
  -82.7580   31.0663    1.3660 N   0  0  0  0  0  0  0  0  0  0  0  0
  -83.5737   31.7250    0.5307 C   0  0  0  0  0  0  0  0  0  0  0  0
  -83.3969   32.8179   -0.3259 C   0  0  0  0  0  0  0  0  0  0  0  0
  -84.4901   33.2337   -1.0533 C   0  0  0  0  0  0  0  0  0  0  0  0
  -85.7351   32.6178   -0.9669 C   0  0  0  0  0  0  0  0  0  0  0  0
  -85.8971   31.5517   -0.1276 C   0  0  0  0  0  0  0  0  0  0  0  0
  -84.8038   31.1065    0.6245 C   0  0  0  0  0  0  0  0  0  0  0  0
  -85.4980   28.1622    2.0683 H   0  0  0  0  0  0  0  0  0  0  0  0
  -86.6975   29.5184    2.0609 H   0  0  0  0  0  0  0  0  0  0  0  0
  -81.7417   31.3302    1.4958 H   0  0  0  0  0  0  0  0  0  0  0  0
  -88.7786   35.4501   -3.7958 C   0  0  0  0  0  0  0  0  0  0  0  0
  -88.2996   36.7748   -3.2919 C   0  0  0  0  0  0  0  0  0  0  0  0
  -88.7204   37.8329   -4.2956 C   0  0  0  0  0  0  0  0  0  0  0  0
  -88.0329   37.4826   -5.6111 C   0  0  0  0  0  0  0  0  0  0  0  0
  -88.5816   36.2930   -6.0482 O   0  0  0  0  0  0  0  0  0  0  0  0
  -88.2986   35.2423   -5.2142 C   0  0  0  0  0  0  0  0  0  0  0  0
 10 11  1  0  0  0
 11 12  2  0  0  0
 12 13  1  0  0  0
 13 14  1  0  0  0
 14 15  2  0  0  0
 15 16  1  0  0  0
 16 17  2  0  0  0
 17 18  1  0  0  0
 18 19  2  0  0  0
 17  1  1  0  0  0
  1  2  2  0  0  0
  2  3  1  0  0  0
  3 23  1  0  0  0
 23 24  1  0  0  0
 24 25  1  0  0  0
 25 26  1  0  0  0
 26 27  1  0  0  0
 27 28  1  0  0  0
  3  4  1  0  0  0
  4  5  2  0  0  0
  5  6  1  0  0  0
  6  7  2  0  0  0
  7  8  1  0  0  0
  8  9  2  0  0  0
 19 11  1  0  0  0
  9  1  1  0  0  0
 19 14  1  0  0  0
 28 23  1  0  0  0
  9  4  1  0  0  0
 10 20  1  0  0  0
 10 21  1  0  0  0
 13 22  1  0  0  0
M  END
> <minimizedAffinity>
-8.38272

> <CNNscore>
0.3766306639

> <CNNaffinity>
6.1693754196

> <CNN_VS>
2.3235759735

> <CNNaffinity_variance>
0.0820237845

$$$$
[H]c1nc2c(c([H])c1[H])c(-c1c([H])c([H])c3c(c(N([H])[H])nn3[H])c1[H])c([H])n2[C@]1([H])C([H])([H])OC([H])([H])C([H])([H])C1([H])[H]


 28 32  0  0  0  0  0  0  0  0999 V2000
  -87.2174   28.3262    0.8237 C   0  0  0  0  0  0  0  0  0  0  0  0
  -87.9951   27.6787    1.7706 C   0  0  0  0  0  0  0  0  0  0  0  0
  -89.0911   27.1554    1.2083 N   0  0  0  0  0  0  0  0  0  0  0  0
  -89.0471   27.4518   -0.1106 C   0  0  0  0  0  0  0  0  0  0  0  0
  -89.9193   27.1464   -1.0955 N   0  0  0  0  0  0  0  0  0  0  0  0
  -89.6826   27.5464   -2.3677 C   0  0  0  0  0  0  0  0  0  0  0  0
  -88.5581   28.2702   -2.7001 C   0  0  0  0  0  0  0  0  0  0  0  0
  -87.6670   28.5796   -1.6812 C   0  0  0  0  0  0  0  0  0  0  0  0
  -87.8870   28.1812   -0.3707 C   0  0  0  0  0  0  0  0  0  0  0  0
  -84.8712   33.0425   -0.6843 N   0  0  0  0  0  0  0  0  0  0  0  0
  -84.1283   32.1459    0.1327 C   0  0  0  0  0  0  0  0  0  0  0  0
  -82.8843   32.2870    0.6106 N   0  0  0  0  0  0  0  0  0  0  0  0
  -82.5350   31.2431    1.3320 N   0  0  0  0  0  0  0  0  0  0  0  0
  -83.5445   30.3616    1.3600 C   0  0  0  0  0  0  0  0  0  0  0  0
  -83.7137   29.1098    1.9632 C   0  0  0  0  0  0  0  0  0  0  0  0
  -84.9200   28.4737    1.7706 C   0  0  0  0  0  0  0  0  0  0  0  0
  -85.9519   29.0213    1.0141 C   0  0  0  0  0  0  0  0  0  0  0  0
  -85.7764   30.2439    0.4294 C   0  0  0  0  0  0  0  0  0  0  0  0
  -84.5607   30.9144    0.6076 C   0  0  0  0  0  0  0  0  0  0  0  0
  -84.7933   34.0715   -0.4942 H   0  0  0  0  0  0  0  0  0  0  0  0
  -85.4700   32.6860   -1.4432 H   0  0  0  0  0  0  0  0  0  0  0  0
  -81.6178   31.0749    1.8319 H   0  0  0  0  0  0  0  0  0  0  0  0
  -90.1569   26.3990    1.8673 C   0  0  0  0  0  0  0  0  0  0  0  0
  -90.0684   24.9392    1.5522 C   0  0  0  0  0  0  0  0  0  0  0  0
  -91.0525   24.2102    2.4490 C   0  0  0  0  0  0  0  0  0  0  0  0
  -90.6103   24.4735    3.8846 C   0  0  0  0  0  0  0  0  0  0  0  0
  -90.7939   25.8217    4.1220 O   0  0  0  0  0  0  0  0  0  0  0  0
  -89.9768   26.6098    3.3534 C   0  0  0  0  0  0  0  0  0  0  0  0
 10 11  1  0  0  0
 11 12  2  0  0  0
 12 13  1  0  0  0
 13 14  1  0  0  0
 14 15  2  0  0  0
 15 16  1  0  0  0
 16 17  2  0  0  0
 17 18  1  0  0  0
 18 19  2  0  0  0
 17  1  1  0  0  0
  1  2  2  0  0  0
  2  3  1  0  0  0
  3 23  1  0  0  0
 23 24  1  0  0  0
 24 25  1  0  0  0
 25 26  1  0  0  0
 26 27  1  0  0  0
 27 28  1  0  0  0
  3  4  1  0  0  0
  4  5  2  0  0  0
  5  6  1  0  0  0
  6  7  2  0  0  0
  7  8  1  0  0  0
  8  9  2  0  0  0
 19 11  1  0  0  0
  9  1  1  0  0  0
 19 14  1  0  0  0
 28 23  1  0  0  0
  9  4  1  0  0  0
 10 20  1  0  0  0
 10 21  1  0  0  0
 13 22  1  0  0  0
M  END
> <minimizedAffinity>
-9.00844

> <CNNscore>
0.3321442902

> <CNNaffinity>
6.2396111488

> <CNN_VS>
2.0724511147

> <CNNaffinity_variance>
0.1345972121

$$$$
[H]c1nc2c(c([H])c1[H])c(-c1c([H])c([H])c3c(c(N([H])[H])nn3[H])c1[H])c([H])n2[C@]1([H])C([H])([H])OC([H])([H])C([H])([H])C1([H])[H]


 28 32  0  0  0  0  0  0  0  0999 V2000
  -87.6696   30.6174   -0.6221 C   0  0  0  0  0  0  0  0  0  0  0  0
  -88.9029   30.0493   -0.8995 C   0  0  0  0  0  0  0  0  0  0  0  0
  -89.6476   30.8718   -1.6480 N   0  0  0  0  0  0  0  0  0  0  0  0
  -88.9151   31.9868   -1.8706 C   0  0  0  0  0  0  0  0  0  0  0  0
  -89.2261   33.1016   -2.5668 N   0  0  0  0  0  0  0  0  0  0  0  0
  -88.3352   34.1168   -2.6669 C   0  0  0  0  0  0  0  0  0  0  0  0
  -87.0949   34.0511   -2.0700 C   0  0  0  0  0  0  0  0  0  0  0  0
  -86.7837   32.9014   -1.3564 C   0  0  0  0  0  0  0  0  0  0  0  0
  -87.6790   31.8481   -1.2396 C   0  0  0  0  0  0  0  0  0  0  0  0
  -82.4489   31.8197    0.5276 N   0  0  0  0  0  0  0  0  0  0  0  0
  -83.0131   30.6406    1.0888 C   0  0  0  0  0  0  0  0  0  0  0  0
  -82.4338   29.7382    1.8923 N   0  0  0  0  0  0  0  0  0  0  0  0
  -83.2765   28.7777    2.2077 N   0  0  0  0  0  0  0  0  0  0  0  0
  -84.4583   29.0094    1.6191 C   0  0  0  0  0  0  0  0  0  0  0  0
  -85.6809   28.3277    1.6120 C   0  0  0  0  0  0  0  0  0  0  0  0
  -86.7061   28.8769    0.8741 C   0  0  0  0  0  0  0  0  0  0  0  0
  -86.5700   30.0592    0.1526 C   0  0  0  0  0  0  0  0  0  0  0  0
  -85.3722   30.7169    0.1663 C   0  0  0  0  0  0  0  0  0  0  0  0
  -84.3118   30.1826    0.9074 C   0  0  0  0  0  0  0  0  0  0  0  0
  -81.8024   32.3945    1.1213 H   0  0  0  0  0  0  0  0  0  0  0  0
  -82.6724   32.0988   -0.4387 H   0  0  0  0  0  0  0  0  0  0  0  0
  -83.1020   27.9347    2.8227 H   0  0  0  0  0  0  0  0  0  0  0  0
  -91.0032   30.6398   -2.1487 C   0  0  0  0  0  0  0  0  0  0  0  0
  -90.9926   30.2165   -3.5836 C   0  0  0  0  0  0  0  0  0  0  0  0
  -92.3990   29.7773   -3.9484 C   0  0  0  0  0  0  0  0  0  0  0  0
  -92.7331   28.5941   -3.0461 C   0  0  0  0  0  0  0  0  0  0  0  0
  -92.8006   29.0787   -1.7545 O   0  0  0  0  0  0  0  0  0  0  0  0
  -91.5918   29.5373   -1.2982 C   0  0  0  0  0  0  0  0  0  0  0  0
 10 11  1  0  0  0
 11 12  2  0  0  0
 12 13  1  0  0  0
 13 14  1  0  0  0
 14 15  2  0  0  0
 15 16  1  0  0  0
 16 17  2  0  0  0
 17 18  1  0  0  0
 18 19  2  0  0  0
 17  1  1  0  0  0
  1  2  2  0  0  0
  2  3  1  0  0  0
  3 23  1  0  0  0
 23 24  1  0  0  0
 24 25  1  0  0  0
 25 26  1  0  0  0
 26 27  1  0  0  0
 27 28  1  0  0  0
  3  4  1  0  0  0
  4  5  2  0  0  0
  5  6  1  0  0  0
  6  7  2  0  0  0
  7  8  1  0  0  0
  8  9  2  0  0  0
 19 11  1  0  0  0
  9  1  1  0  0  0
 19 14  1  0  0  0
 28 23  1  0  0  0
  9  4  1  0  0  0
 10 20  1  0  0  0
 10 21  1  0  0  0
 13 22  1  0  0  0
M  END
> <minimizedAffinity>
-8.66044

> <CNNscore>
0.2744722962

> <CNNaffinity>
6.2073345184

> <CNN_VS>
1.7037413120

> <CNNaffinity_variance>
0.1657951772

$$$$
[H]c1c([H])c([H])c(N([H])c2c([H])c([H])c3c(c2[H])c2c([H])c(C(=O)N([H])[C@@]([H])(c4c([H])c([H])c([H])c([H])c4[H])C([H])([H])[H])c(OC([H])([H])[H])c([H])c2n3C([H])([H])C([H])([H])[H])c([H])c1[H]


 37 41  0  0  0  0  0  0  0  0999 V2000
  -85.0321   32.0695   -0.0148 N   0  0  0  0  0  0  0  0  0  0  0  0
  -86.0206   32.5726   -0.7504 C   0  0  0  0  0  0  0  0  0  0  0  0
  -86.1097   33.7388   -1.4670 C   0  0  0  0  0  0  0  0  0  0  0  0
  -87.2908   34.0318   -2.1616 C   0  0  0  0  0  0  0  0  0  0  0  0
  -88.3836   33.1999   -2.1625 C   0  0  0  0  0  0  0  0  0  0  0  0
  -88.2640   32.0171   -1.4231 C   0  0  0  0  0  0  0  0  0  0  0  0
  -87.1054   31.7276   -0.7418 C   0  0  0  0  0  0  0  0  0  0  0  0
  -86.7462   30.6391    0.0549 C   0  0  0  0  0  0  0  0  0  0  0  0
  -87.4024   29.4926    0.4368 C   0  0  0  0  0  0  0  0  0  0  0  0
  -86.8226   28.5215    1.2690 C   0  0  0  0  0  0  0  0  0  0  0  0
  -85.5458   28.7684    1.6951 C   0  0  0  0  0  0  0  0  0  0  0  0
  -84.8896   29.9456    1.2950 C   0  0  0  0  0  0  0  0  0  0  0  0
  -85.4682   30.8892    0.4798 C   0  0  0  0  0  0  0  0  0  0  0  0
  -87.5546   27.3482    1.6485 C   0  0  0  0  0  0  0  0  0  0  0  0
  -86.9582   26.2286    1.3832 O   0  0  0  0  0  0  0  0  0  0  0  0
  -88.8001   27.2397    2.2560 N   0  0  0  0  0  0  0  0  0  0  0  0
  -89.3866   28.0341    2.5191 H   0  0  0  0  0  0  0  0  0  0  0  0
  -89.3727   25.9265    2.5648 C   0  0  0  0  0  0  0  0  0  0  0  0
  -90.8589   25.9691    2.1933 C   0  0  0  0  0  0  0  0  0  0  0  0
  -89.2019   25.6359    4.0019 C   0  0  0  0  0  0  0  0  0  0  0  0
  -89.6947   26.5156    4.9582 C   0  0  0  0  0  0  0  0  0  0  0  0
  -89.5447   26.2611    6.3271 C   0  0  0  0  0  0  0  0  0  0  0  0
  -88.9057   25.1334    6.7673 C   0  0  0  0  0  0  0  0  0  0  0  0
  -88.4076   24.2452    5.8362 C   0  0  0  0  0  0  0  0  0  0  0  0
  -88.5613   24.5074    4.4736 C   0  0  0  0  0  0  0  0  0  0  0  0
  -82.6023   31.7360   -0.1667 C   0  0  0  0  0  0  0  0  0  0  0  0
  -83.7173   32.6739    0.2198 C   0  0  0  0  0  0  0  0  0  0  0  0
  -89.6028   33.4668   -2.8162 N   0  0  0  0  0  0  0  0  0  0  0  0
  -90.4671   33.0167   -2.3921 H   0  0  0  0  0  0  0  0  0  0  0  0
  -89.8113   34.2557   -3.9626 C   0  0  0  0  0  0  0  0  0  0  0  0
  -89.6535   33.7301   -5.2110 C   0  0  0  0  0  0  0  0  0  0  0  0
  -89.8887   34.5319   -6.3319 C   0  0  0  0  0  0  0  0  0  0  0  0
  -90.2783   35.8471   -6.2218 C   0  0  0  0  0  0  0  0  0  0  0  0
  -90.4296   36.3517   -4.9428 C   0  0  0  0  0  0  0  0  0  0  0  0
  -90.2074   35.5943   -3.8312 C   0  0  0  0  0  0  0  0  0  0  0  0
  -84.8483   27.8995    2.5195 O   0  0  0  0  0  0  0  0  0  0  0  0
  -83.4415   27.9177    2.5918 C   0  0  0  0  0  0  0  0  0  0  0  0
 26 27  1  0  0  0
 27  1  1  0  0  0
  1  2  1  0  0  0
  2  3  2  0  0  0
  3  4  1  0  0  0
  4  5  2  0  0  0
  5 28  1  0  0  0
 28 30  1  0  0  0
 30 31  2  0  0  0
 31 32  1  0  0  0
 32 33  2  0  0  0
 33 34  1  0  0  0
 34 35  2  0  0  0
  5  6  1  0  0  0
  6  7  2  0  0  0
  7  8  1  0  0  0
  8  9  2  0  0  0
  9 10  1  0  0  0
 10 14  1  0  0  0
 14 15  2  0  0  0
 14 16  1  0  0  0
 16 18  1  0  0  0
 18 19  1  0  0  0
 18 20  1  0  0  0
 20 21  2  0  0  0
 21 22  1  0  0  0
 22 23  2  0  0  0
 23 24  1  0  0  0
 24 25  2  0  0  0
 10 11  2  0  0  0
 11 36  1  0  0  0
 36 37  1  0  0  0
 11 12  1  0  0  0
 12 13  2  0  0  0
 13  1  1  0  0  0
  7  2  1  0  0  0
 13  8  1  0  0  0
 35 30  1  0  0  0
 25 20  1  0  0  0
 28 29  1  0  0  0
 16 17  1  0  0  0
M  END
> <minimizedAffinity>
-8.73895

> <CNNscore>
0.3352498412

> <CNNaffinity>
6.8843307495

> <CNN_VS>
2.3079707623

> <CNNaffinity_variance>
0.1042471528

$$$$
[H]c1c([H])c([H])c(N([H])c2c([H])c([H])c3c(c2[H])c2c([H])c(C(=O)N([H])[C@@]([H])(c4c([H])c([H])c([H])c([H])c4[H])C([H])([H])[H])c(OC([H])([H])[H])c([H])c2n3C([H])([H])C([H])([H])[H])c([H])c1[H]


 37 41  0  0  0  0  0  0  0  0999 V2000
  -89.8906   28.7188   -3.3999 N   0  0  0  0  0  0  0  0  0  0  0  0
  -90.3490   27.4872   -3.6110 C   0  0  0  0  0  0  0  0  0  0  0  0
  -90.6714   26.8301   -4.7711 C   0  0  0  0  0  0  0  0  0  0  0  0
  -91.1450   25.5129   -4.7077 C   0  0  0  0  0  0  0  0  0  0  0  0
  -91.3078   24.8330   -3.5256 C   0  0  0  0  0  0  0  0  0  0  0  0
  -90.9707   25.5283   -2.3580 C   0  0  0  0  0  0  0  0  0  0  0  0
  -90.5048   26.8204   -2.4186 C   0  0  0  0  0  0  0  0  0  0  0  0
  -90.1133   27.7122   -1.4185 C   0  0  0  0  0  0  0  0  0  0  0  0
  -90.0529   27.6243   -0.0475 C   0  0  0  0  0  0  0  0  0  0  0  0
  -89.6193   28.6824    0.7675 C   0  0  0  0  0  0  0  0  0  0  0  0
  -89.2498   29.8334    0.1260 C   0  0  0  0  0  0  0  0  0  0  0  0
  -89.3177   29.9059   -1.2764 C   0  0  0  0  0  0  0  0  0  0  0  0
  -89.7444   28.8628   -2.0636 C   0  0  0  0  0  0  0  0  0  0  0  0
  -89.5866   28.5441    2.1945 C   0  0  0  0  0  0  0  0  0  0  0  0
  -88.6075   29.1627    2.7762 O   0  0  0  0  0  0  0  0  0  0  0  0
  -90.4471   27.8493    3.0365 N   0  0  0  0  0  0  0  0  0  0  0  0
  -91.2579   27.3134    2.7208 H   0  0  0  0  0  0  0  0  0  0  0  0
  -90.2328   27.8393    4.4862 C   0  0  0  0  0  0  0  0  0  0  0  0
  -89.3386   29.0351    4.8315 C   0  0  0  0  0  0  0  0  0  0  0  0
  -89.5874   26.5728    4.8840 C   0  0  0  0  0  0  0  0  0  0  0  0
  -89.0707   25.7163    3.9193 C   0  0  0  0  0  0  0  0  0  0  0  0
  -88.4541   24.5096    4.2726 C   0  0  0  0  0  0  0  0  0  0  0  0
  -88.3406   24.1350    5.5843 C   0  0  0  0  0  0  0  0  0  0  0  0
  -88.8467   24.9691    6.5601 C   0  0  0  0  0  0  0  0  0  0  0  0
  -89.4602   26.1699    6.1986 C   0  0  0  0  0  0  0  0  0  0  0  0
  -88.2276   30.3306   -4.2213 C   0  0  0  0  0  0  0  0  0  0  0  0
  -89.5973   29.7325   -4.4174 C   0  0  0  0  0  0  0  0  0  0  0  0
  -91.8118   23.5225   -3.4089 N   0  0  0  0  0  0  0  0  0  0  0  0
  -91.1013   22.7699   -3.1678 H   0  0  0  0  0  0  0  0  0  0  0  0
  -93.1413   23.0926   -3.5751 C   0  0  0  0  0  0  0  0  0  0  0  0
  -93.7314   23.1046   -4.8043 C   0  0  0  0  0  0  0  0  0  0  0  0
  -95.0467   22.6510   -4.9426 C   0  0  0  0  0  0  0  0  0  0  0  0
  -95.7770   22.1872   -3.8725 C   0  0  0  0  0  0  0  0  0  0  0  0
  -95.1515   22.1876   -2.6387 C   0  0  0  0  0  0  0  0  0  0  0  0
  -93.8705   22.6238   -2.4730 C   0  0  0  0  0  0  0  0  0  0  0  0
  -88.8016   30.9582    0.8006 O   0  0  0  0  0  0  0  0  0  0  0  0
  -88.6676   32.2032    0.1553 C   0  0  0  0  0  0  0  0  0  0  0  0
 26 27  1  0  0  0
 27  1  1  0  0  0
  1  2  1  0  0  0
  2  3  2  0  0  0
  3  4  1  0  0  0
  4  5  2  0  0  0
  5 28  1  0  0  0
 28 30  1  0  0  0
 30 31  2  0  0  0
 31 32  1  0  0  0
 32 33  2  0  0  0
 33 34  1  0  0  0
 34 35  2  0  0  0
  5  6  1  0  0  0
  6  7  2  0  0  0
  7  8  1  0  0  0
  8  9  2  0  0  0
  9 10  1  0  0  0
 10 14  1  0  0  0
 14 15  2  0  0  0
 14 16  1  0  0  0
 16 18  1  0  0  0
 18 19  1  0  0  0
 18 20  1  0  0  0
 20 21  2  0  0  0
 21 22  1  0  0  0
 22 23  2  0  0  0
 23 24  1  0  0  0
 24 25  2  0  0  0
 10 11  2  0  0  0
 11 36  1  0  0  0
 36 37  1  0  0  0
 11 12  1  0  0  0
 12 13  2  0  0  0
 13  1  1  0  0  0
  7  2  1  0  0  0
 13  8  1  0  0  0
 35 30  1  0  0  0
 25 20  1  0  0  0
 28 29  1  0  0  0
 16 17  1  0  0  0
M  END
> <minimizedAffinity>
7.28049

> <CNNscore>
0.2636582553

> <CNNaffinity>
5.6589250565

> <CNN_VS>
1.4920222759

> <CNNaffinity_variance>
1.1027700901

$$$$
[H]c1c([H])c([H])c(N([H])c2c([H])c([H])c3c(c2[H])c2c([H])c(C(=O)N([H])[C@@]([H])(c4c([H])c([H])c([H])c([H])c4[H])C([H])([H])[H])c(OC([H])([H])[H])c([H])c2n3C([H])([H])C([H])([H])[H])c([H])c1[H]


 37 41  0  0  0  0  0  0  0  0999 V2000
  -85.1981   31.5028    0.4305 N   0  0  0  0  0  0  0  0  0  0  0  0
  -85.6794   30.3668    0.9300 C   0  0  0  0  0  0  0  0  0  0  0  0
  -85.2419   29.5775    1.9629 C   0  0  0  0  0  0  0  0  0  0  0  0
  -85.9464   28.4094    2.2833 C   0  0  0  0  0  0  0  0  0  0  0  0
  -87.0705   28.0047    1.6058 C   0  0  0  0  0  0  0  0  0  0  0  0
  -87.4939   28.8298    0.5570 C   0  0  0  0  0  0  0  0  0  0  0  0
  -86.8043   29.9768    0.2421 C   0  0  0  0  0  0  0  0  0  0  0  0
  -87.0161   30.9449   -0.7412 C   0  0  0  0  0  0  0  0  0  0  0  0
  -87.9651   31.0988   -1.7243 C   0  0  0  0  0  0  0  0  0  0  0  0
  -87.9686   32.1799   -2.6204 C   0  0  0  0  0  0  0  0  0  0  0  0
  -86.9641   33.0973   -2.4718 C   0  0  0  0  0  0  0  0  0  0  0  0
  -86.0022   32.9246   -1.4613 C   0  0  0  0  0  0  0  0  0  0  0  0
  -86.0093   31.8614   -0.5899 C   0  0  0  0  0  0  0  0  0  0  0  0
  -88.9745   32.2876   -3.6367 C   0  0  0  0  0  0  0  0  0  0  0  0
  -88.6324   31.8064   -4.7904 O   0  0  0  0  0  0  0  0  0  0  0  0
  -90.2532   32.8279   -3.5630 N   0  0  0  0  0  0  0  0  0  0  0  0
  -90.6571   33.2458   -2.7225 H   0  0  0  0  0  0  0  0  0  0  0  0
  -91.1336   32.8349   -4.7345 C   0  0  0  0  0  0  0  0  0  0  0  0
  -91.7421   34.2368   -4.8494 C   0  0  0  0  0  0  0  0  0  0  0  0
  -92.1912   31.8190   -4.5669 C   0  0  0  0  0  0  0  0  0  0  0  0
  -92.9773   31.4407   -5.6487 C   0  0  0  0  0  0  0  0  0  0  0  0
  -93.9864   30.4791   -5.5139 C   0  0  0  0  0  0  0  0  0  0  0  0
  -94.2306   29.8795   -4.3079 C   0  0  0  0  0  0  0  0  0  0  0  0
  -93.4631   30.2392   -3.2191 C   0  0  0  0  0  0  0  0  0  0  0  0
  -92.4596   31.1992   -3.3626 C   0  0  0  0  0  0  0  0  0  0  0  0
  -82.7493   31.6620    0.3042 C   0  0  0  0  0  0  0  0  0  0  0  0
  -84.0141   32.2328    0.8931 C   0  0  0  0  0  0  0  0  0  0  0  0
  -87.7916   26.8231    1.8683 N   0  0  0  0  0  0  0  0  0  0  0  0
  -87.5114   25.9703    1.2995 H   0  0  0  0  0  0  0  0  0  0  0  0
  -88.8376   26.6390    2.7913 C   0  0  0  0  0  0  0  0  0  0  0  0
  -89.4214   25.4171    2.9516 C   0  0  0  0  0  0  0  0  0  0  0  0
  -90.4439   25.2591    3.8919 C   0  0  0  0  0  0  0  0  0  0  0  0
  -90.8888   26.3023    4.6713 C   0  0  0  0  0  0  0  0  0  0  0  0
  -90.2777   27.5293    4.4855 C   0  0  0  0  0  0  0  0  0  0  0  0
  -89.2785   27.7138    3.5764 C   0  0  0  0  0  0  0  0  0  0  0  0
  -86.8414   34.2142   -3.2834 O   0  0  0  0  0  0  0  0  0  0  0  0
  -87.5635   35.3966   -3.0283 C   0  0  0  0  0  0  0  0  0  0  0  0
 26 27  1  0  0  0
 27  1  1  0  0  0
  1  2  1  0  0  0
  2  3  2  0  0  0
  3  4  1  0  0  0
  4  5  2  0  0  0
  5 28  1  0  0  0
 28 30  1  0  0  0
 30 31  2  0  0  0
 31 32  1  0  0  0
 32 33  2  0  0  0
 33 34  1  0  0  0
 34 35  2  0  0  0
  5  6  1  0  0  0
  6  7  2  0  0  0
  7  8  1  0  0  0
  8  9  2  0  0  0
  9 10  1  0  0  0
 10 14  1  0  0  0
 14 15  2  0  0  0
 14 16  1  0  0  0
 16 18  1  0  0  0
 18 19  1  0  0  0
 18 20  1  0  0  0
 20 21  2  0  0  0
 21 22  1  0  0  0
 22 23  2  0  0  0
 23 24  1  0  0  0
 24 25  2  0  0  0
 10 11  2  0  0  0
 11 36  1  0  0  0
 36 37  1  0  0  0
 11 12  1  0  0  0
 12 13  2  0  0  0
 13  1  1  0  0  0
  7  2  1  0  0  0
 13  8  1  0  0  0
 35 30  1  0  0  0
 25 20  1  0  0  0
 28 29  1  0  0  0
 16 17  1  0  0  0
M  END
> <minimizedAffinity>
-8.84723

> <CNNscore>
0.2531459033

> <CNNaffinity>
6.8152694702

> <CNN_VS>
1.7252575159

> <CNNaffinity_variance>
0.1049063653

$$$$
[H]c1c([H])c([H])c(N([H])c2c([H])c([H])c3c(c2[H])c2c([H])c(C(=O)N([H])[C@@]([H])(c4c([H])c([H])c([H])c([H])c4[H])C([H])([H])[H])c(OC([H])([H])[H])c([H])c2n3C([H])([H])C([H])([H])[H])c([H])c1[H]


 37 41  0  0  0  0  0  0  0  0999 V2000
  -84.8682   31.4311    0.6022 N   0  0  0  0  0  0  0  0  0  0  0  0
  -85.1483   30.2074    1.0445 C   0  0  0  0  0  0  0  0  0  0  0  0
  -84.4454   29.3599    1.8625 C   0  0  0  0  0  0  0  0  0  0  0  0
  -84.9787   28.1016    2.1719 C   0  0  0  0  0  0  0  0  0  0  0  0
  -86.1880   27.6632    1.6906 C   0  0  0  0  0  0  0  0  0  0  0  0
  -86.8831   28.5491    0.8587 C   0  0  0  0  0  0  0  0  0  0  0  0
  -86.3618   29.7846    0.5550 C   0  0  0  0  0  0  0  0  0  0  0  0
  -86.8471   30.8257   -0.2382 C   0  0  0  0  0  0  0  0  0  0  0  0
  -87.9915   30.9893   -0.9829 C   0  0  0  0  0  0  0  0  0  0  0  0
  -88.2637   32.1534   -1.7196 C   0  0  0  0  0  0  0  0  0  0  0  0
  -87.3205   33.1434   -1.6648 C   0  0  0  0  0  0  0  0  0  0  0  0
  -86.1564   32.9594   -0.8983 C   0  0  0  0  0  0  0  0  0  0  0  0
  -85.9010   31.8146   -0.1814 C   0  0  0  0  0  0  0  0  0  0  0  0
  -89.4672   32.2693   -2.4908 C   0  0  0  0  0  0  0  0  0  0  0  0
  -90.5406   31.8734   -1.8820 O   0  0  0  0  0  0  0  0  0  0  0  0
  -89.6469   32.7426   -3.7854 N   0  0  0  0  0  0  0  0  0  0  0  0
  -88.8941   33.0832   -4.3866 H   0  0  0  0  0  0  0  0  0  0  0  0
  -90.9801   32.7794   -4.3926 C   0  0  0  0  0  0  0  0  0  0  0  0
  -91.3681   31.3401   -4.7483 C   0  0  0  0  0  0  0  0  0  0  0  0
  -90.9520   33.6263   -5.6013 C   0  0  0  0  0  0  0  0  0  0  0  0
  -89.9899   34.6196   -5.7387 C   0  0  0  0  0  0  0  0  0  0  0  0
  -89.9435   35.4353   -6.8762 C   0  0  0  0  0  0  0  0  0  0  0  0
  -90.8477   35.2787   -7.8918 C   0  0  0  0  0  0  0  0  0  0  0  0
  -91.8128   34.2990   -7.7776 C   0  0  0  0  0  0  0  0  0  0  0  0
  -91.8518   33.4909   -6.6399 C   0  0  0  0  0  0  0  0  0  0  0  0
  -82.5216   31.8439    0.0013 C   0  0  0  0  0  0  0  0  0  0  0  0
  -83.6697   32.2199    0.9027 C   0  0  0  0  0  0  0  0  0  0  0  0
  -86.7487   26.3960    1.9454 N   0  0  0  0  0  0  0  0  0  0  0  0
  -86.0630   25.6269    2.2054 H   0  0  0  0  0  0  0  0  0  0  0  0
  -88.1060   26.0283    1.8952 C   0  0  0  0  0  0  0  0  0  0  0  0
  -88.6502   25.5180    0.7538 C   0  0  0  0  0  0  0  0  0  0  0  0
  -89.9965   25.1410    0.7400 C   0  0  0  0  0  0  0  0  0  0  0  0
  -90.8029   25.2669    1.8480 C   0  0  0  0  0  0  0  0  0  0  0  0
  -90.2225   25.7879    2.9904 C   0  0  0  0  0  0  0  0  0  0  0  0
  -88.9128   26.1643    3.0339 C   0  0  0  0  0  0  0  0  0  0  0  0
  -87.4544   34.3461   -2.3404 O   0  0  0  0  0  0  0  0  0  0  0  0
  -86.7774   34.5939   -3.5507 C   0  0  0  0  0  0  0  0  0  0  0  0
 26 27  1  0  0  0
 27  1  1  0  0  0
  1  2  1  0  0  0
  2  3  2  0  0  0
  3  4  1  0  0  0
  4  5  2  0  0  0
  5 28  1  0  0  0
 28 30  1  0  0  0
 30 31  2  0  0  0
 31 32  1  0  0  0
 32 33  2  0  0  0
 33 34  1  0  0  0
 34 35  2  0  0  0
  5  6  1  0  0  0
  6  7  2  0  0  0
  7  8  1  0  0  0
  8  9  2  0  0  0
  9 10  1  0  0  0
 10 14  1  0  0  0
 14 15  2  0  0  0
 14 16  1  0  0  0
 16 18  1  0  0  0
 18 19  1  0  0  0
 18 20  1  0  0  0
 20 21  2  0  0  0
 21 22  1  0  0  0
 22 23  2  0  0  0
 23 24  1  0  0  0
 24 25  2  0  0  0
 10 11  2  0  0  0
 11 36  1  0  0  0
 36 37  1  0  0  0
 11 12  1  0  0  0
 12 13  2  0  0  0
 13  1  1  0  0  0
  7  2  1  0  0  0
 13  8  1  0  0  0
 35 30  1  0  0  0
 25 20  1  0  0  0
 28 29  1  0  0  0
 16 17  1  0  0  0
M  END
> <minimizedAffinity>
-8.89688

> <CNNscore>
0.2035873681

> <CNNaffinity>
6.4852132797

> <CNN_VS>
1.3203074932

> <CNNaffinity_variance>
0.1840003133

$$$$
[H]c1c([H])c([H])c(N([H])c2c([H])c([H])c3c(c2[H])c2c([H])c(C(=O)N([H])[C@@]([H])(c4c([H])c([H])c([H])c([H])c4[H])C([H])([H])[H])c(OC([H])([H])[H])c([H])c2n3C([H])([H])C([H])([H])[H])c([H])c1[H]


 37 41  0  0  0  0  0  0  0  0999 V2000
  -85.8481   30.9359    0.4729 N   0  0  0  0  0  0  0  0  0  0  0  0
  -86.3685   31.8505   -0.3421 C   0  0  0  0  0  0  0  0  0  0  0  0
  -85.9774   33.1341   -0.6263 C   0  0  0  0  0  0  0  0  0  0  0  0
  -86.7219   33.8952   -1.5372 C   0  0  0  0  0  0  0  0  0  0  0  0
  -87.8427   33.4170   -2.1708 C   0  0  0  0  0  0  0  0  0  0  0  0
  -88.2180   32.1041   -1.8616 C   0  0  0  0  0  0  0  0  0  0  0  0
  -87.4879   31.3556   -0.9689 C   0  0  0  0  0  0  0  0  0  0  0  0
  -87.6544   30.0517   -0.4989 C   0  0  0  0  0  0  0  0  0  0  0  0
  -88.5831   29.0696   -0.7515 C   0  0  0  0  0  0  0  0  0  0  0  0
  -88.5454   27.8066   -0.1388 C   0  0  0  0  0  0  0  0  0  0  0  0
  -87.5211   27.5872    0.7419 C   0  0  0  0  0  0  0  0  0  0  0  0
  -86.5802   28.6024    0.9882 C   0  0  0  0  0  0  0  0  0  0  0  0
  -86.6280   29.8354    0.3821 C   0  0  0  0  0  0  0  0  0  0  0  0
  -89.5458   26.8206   -0.4273 C   0  0  0  0  0  0  0  0  0  0  0  0
  -90.5445   26.8048    0.3986 O   0  0  0  0  0  0  0  0  0  0  0  0
  -89.5992   25.8884   -1.4571 N   0  0  0  0  0  0  0  0  0  0  0  0
  -88.8832   25.7816   -2.1783 H   0  0  0  0  0  0  0  0  0  0  0  0
  -90.7289   24.9622   -1.5733 C   0  0  0  0  0  0  0  0  0  0  0  0
  -90.1571   23.5593   -1.8046 C   0  0  0  0  0  0  0  0  0  0  0  0
  -91.5895   25.3678   -2.7018 C   0  0  0  0  0  0  0  0  0  0  0  0
  -92.6274   24.5451   -3.1226 C   0  0  0  0  0  0  0  0  0  0  0  0
  -93.4569   24.9088   -4.1908 C   0  0  0  0  0  0  0  0  0  0  0  0
  -93.2703   26.0905   -4.8560 C   0  0  0  0  0  0  0  0  0  0  0  0
  -92.2456   26.9237   -4.4564 C   0  0  0  0  0  0  0  0  0  0  0  0
  -91.4234   26.5529   -3.3908 C   0  0  0  0  0  0  0  0  0  0  0  0
  -83.4047   30.6942    0.5692 C   0  0  0  0  0  0  0  0  0  0  0  0
  -84.6560   31.0856    1.3129 C   0  0  0  0  0  0  0  0  0  0  0  0
  -88.6420   34.1543   -3.0666 N   0  0  0  0  0  0  0  0  0  0  0  0
  -89.6530   33.8392   -3.1564 H   0  0  0  0  0  0  0  0  0  0  0  0
  -88.2610   35.2551   -3.8560 C   0  0  0  0  0  0  0  0  0  0  0  0
  -87.8038   35.0779   -5.1284 C   0  0  0  0  0  0  0  0  0  0  0  0
  -87.4531   36.1919   -5.8969 C   0  0  0  0  0  0  0  0  0  0  0  0
  -87.5532   37.4760   -5.4121 C   0  0  0  0  0  0  0  0  0  0  0  0
  -88.0198   37.6235   -4.1183 C   0  0  0  0  0  0  0  0  0  0  0  0
  -88.3692   36.5563   -3.3451 C   0  0  0  0  0  0  0  0  0  0  0  0
  -87.3575   26.3895    1.4199 O   0  0  0  0  0  0  0  0  0  0  0  0
  -88.0302   26.1267    2.6295 C   0  0  0  0  0  0  0  0  0  0  0  0
 26 27  1  0  0  0
 27  1  1  0  0  0
  1  2  1  0  0  0
  2  3  2  0  0  0
  3  4  1  0  0  0
  4  5  2  0  0  0
  5 28  1  0  0  0
 28 30  1  0  0  0
 30 31  2  0  0  0
 31 32  1  0  0  0
 32 33  2  0  0  0
 33 34  1  0  0  0
 34 35  2  0  0  0
  5  6  1  0  0  0
  6  7  2  0  0  0
  7  8  1  0  0  0
  8  9  2  0  0  0
  9 10  1  0  0  0
 10 14  1  0  0  0
 14 15  2  0  0  0
 14 16  1  0  0  0
 16 18  1  0  0  0
 18 19  1  0  0  0
 18 20  1  0  0  0
 20 21  2  0  0  0
 21 22  1  0  0  0
 22 23  2  0  0  0
 23 24  1  0  0  0
 24 25  2  0  0  0
 10 11  2  0  0  0
 11 36  1  0  0  0
 36 37  1  0  0  0
 11 12  1  0  0  0
 12 13  2  0  0  0
 13  1  1  0  0  0
  7  2  1  0  0  0
 13  8  1  0  0  0
 35 30  1  0  0  0
 25 20  1  0  0  0
 28 29  1  0  0  0
 16 17  1  0  0  0
M  END
> <minimizedAffinity>
-8.84412

> <CNNscore>
0.1856024712

> <CNNaffinity>
6.3552217484

> <CNN_VS>
1.1795448065

> <CNNaffinity_variance>
0.2069008350

$$$$
[H]c1c([H])c([H])c(N([H])c2c([H])c([H])c3c(c2[H])c2c([H])c(C(=O)N([H])[C@@]([H])(c4c([H])c([H])c([H])c([H])c4[H])C([H])([H])[H])c(OC([H])([H])[H])c([H])c2n3C([H])([H])C([H])([H])[H])c([H])c1[H]


 37 41  0  0  0  0  0  0  0  0999 V2000
  -85.3952   30.2701    1.2888 N   0  0  0  0  0  0  0  0  0  0  0  0
  -85.4791   31.2836    0.4301 C   0  0  0  0  0  0  0  0  0  0  0  0
  -84.6939   32.3964    0.2670 C   0  0  0  0  0  0  0  0  0  0  0  0
  -85.0154   33.3259   -0.7310 C   0  0  0  0  0  0  0  0  0  0  0  0
  -86.0941   33.1805   -1.5685 C   0  0  0  0  0  0  0  0  0  0  0  0
  -86.8772   32.0355   -1.3792 C   0  0  0  0  0  0  0  0  0  0  0  0
  -86.5625   31.1219   -0.4011 C   0  0  0  0  0  0  0  0  0  0  0  0
  -87.1750   29.9279   -0.0166 C   0  0  0  0  0  0  0  0  0  0  0  0
  -88.2847   29.2504   -0.4645 C   0  0  0  0  0  0  0  0  0  0  0  0
  -88.7187   28.0390    0.0976 C   0  0  0  0  0  0  0  0  0  0  0  0
  -87.9738   27.5476    1.1352 C   0  0  0  0  0  0  0  0  0  0  0  0
  -86.8422   28.2532    1.5803 C   0  0  0  0  0  0  0  0  0  0  0  0
  -86.4274   29.4388    1.0217 C   0  0  0  0  0  0  0  0  0  0  0  0
  -89.8906   27.3779   -0.3983 C   0  0  0  0  0  0  0  0  0  0  0  0
  -90.9453   27.5179    0.3417 O   0  0  0  0  0  0  0  0  0  0  0  0
  -90.0573   26.6164   -1.5492 N   0  0  0  0  0  0  0  0  0  0  0  0
  -89.3159   26.4176   -2.2238 H   0  0  0  0  0  0  0  0  0  0  0  0
  -91.3578   26.0251   -1.8761 C   0  0  0  0  0  0  0  0  0  0  0  0
  -91.1341   24.5340   -2.1501 C   0  0  0  0  0  0  0  0  0  0  0  0
  -91.9234   26.6950   -3.0636 C   0  0  0  0  0  0  0  0  0  0  0  0
  -92.5093   25.9469   -4.0776 C   0  0  0  0  0  0  0  0  0  0  0  0
  -93.0525   26.5602   -5.2134 C   0  0  0  0  0  0  0  0  0  0  0  0
  -93.0231   27.9207   -5.3605 C   0  0  0  0  0  0  0  0  0  0  0  0
  -92.4461   28.6846   -4.3668 C   0  0  0  0  0  0  0  0  0  0  0  0
  -91.9066   28.0646   -3.2382 C   0  0  0  0  0  0  0  0  0  0  0  0
  -83.1067   29.5103    1.7614 C   0  0  0  0  0  0  0  0  0  0  0  0
  -84.3799   30.0833    2.3296 C   0  0  0  0  0  0  0  0  0  0  0  0
  -86.4768   34.1031   -2.5622 N   0  0  0  0  0  0  0  0  0  0  0  0
  -85.7773   34.8741   -2.7762 H   0  0  0  0  0  0  0  0  0  0  0  0
  -87.6733   34.1258   -3.3023 C   0  0  0  0  0  0  0  0  0  0  0  0
  -88.6563   35.0261   -3.0146 C   0  0  0  0  0  0  0  0  0  0  0  0
  -89.8254   35.0395   -3.7811 C   0  0  0  0  0  0  0  0  0  0  0  0
  -90.0242   34.1682   -4.8276 C   0  0  0  0  0  0  0  0  0  0  0  0
  -89.0096   33.2668   -5.0948 C   0  0  0  0  0  0  0  0  0  0  0  0
  -87.8587   33.2299   -4.3649 C   0  0  0  0  0  0  0  0  0  0  0  0
  -88.2825   26.3635    1.7861 O   0  0  0  0  0  0  0  0  0  0  0  0
  -88.9635   26.3533    3.0192 C   0  0  0  0  0  0  0  0  0  0  0  0
 26 27  1  0  0  0
 27  1  1  0  0  0
  1  2  1  0  0  0
  2  3  2  0  0  0
  3  4  1  0  0  0
  4  5  2  0  0  0
  5 28  1  0  0  0
 28 30  1  0  0  0
 30 31  2  0  0  0
 31 32  1  0  0  0
 32 33  2  0  0  0
 33 34  1  0  0  0
 34 35  2  0  0  0
  5  6  1  0  0  0
  6  7  2  0  0  0
  7  8  1  0  0  0
  8  9  2  0  0  0
  9 10  1  0  0  0
 10 14  1  0  0  0
 14 15  2  0  0  0
 14 16  1  0  0  0
 16 18  1  0  0  0
 18 19  1  0  0  0
 18 20  1  0  0  0
 20 21  2  0  0  0
 21 22  1  0  0  0
 22 23  2  0  0  0
 23 24  1  0  0  0
 24 25  2  0  0  0
 10 11  2  0  0  0
 11 36  1  0  0  0
 36 37  1  0  0  0
 11 12  1  0  0  0
 12 13  2  0  0  0
 13  1  1  0  0  0
  7  2  1  0  0  0
 13  8  1  0  0  0
 35 30  1  0  0  0
 25 20  1  0  0  0
 28 29  1  0  0  0
 16 17  1  0  0  0
M  END
> <minimizedAffinity>
-9.17251

> <CNNscore>
0.1793212444

> <CNNaffinity>
6.3538031578

> <CNN_VS>
1.1393718719

> <CNNaffinity_variance>
0.5426849723

$$$$
[H]c1c([H])c([H])c(N([H])c2c([H])c([H])c3c(c2[H])c2c([H])c(C(=O)N([H])[C@@]([H])(c4c([H])c([H])c([H])c([H])c4[H])C([H])([H])[H])c(OC([H])([H])[H])c([H])c2n3C([H])([H])C([H])([H])[H])c([H])c1[H]


 37 41  0  0  0  0  0  0  0  0999 V2000
  -87.8182   33.0568   -2.6991 N   0  0  0  0  0  0  0  0  0  0  0  0
  -86.8281   32.9377   -1.8177 C   0  0  0  0  0  0  0  0  0  0  0  0
  -85.6735   33.6598   -1.6534 C   0  0  0  0  0  0  0  0  0  0  0  0
  -84.7841   33.3125   -0.6278 C   0  0  0  0  0  0  0  0  0  0  0  0
  -85.0098   32.2689    0.2360 C   0  0  0  0  0  0  0  0  0  0  0  0
  -86.1959   31.5501    0.0448 C   0  0  0  0  0  0  0  0  0  0  0  0
  -87.0702   31.8902   -0.9603 C   0  0  0  0  0  0  0  0  0  0  0  0
  -88.2913   31.3388   -1.3523 C   0  0  0  0  0  0  0  0  0  0  0  0
  -89.0425   30.2848   -0.8880 C   0  0  0  0  0  0  0  0  0  0  0  0
  -90.2669   29.9075   -1.4629 C   0  0  0  0  0  0  0  0  0  0  0  0
  -90.6929   30.6500   -2.5306 C   0  0  0  0  0  0  0  0  0  0  0  0
  -89.9124   31.7244   -2.9921 C   0  0  0  0  0  0  0  0  0  0  0  0
  -88.7149   32.0840   -2.4208 C   0  0  0  0  0  0  0  0  0  0  0  0
  -91.0064   28.7917   -0.9485 C   0  0  0  0  0  0  0  0  0  0  0  0
  -92.0254   29.1099   -0.2138 O   0  0  0  0  0  0  0  0  0  0  0  0
  -90.7905   27.4298   -1.1241 N   0  0  0  0  0  0  0  0  0  0  0  0
  -90.0260   27.0313   -1.6728 H   0  0  0  0  0  0  0  0  0  0  0  0
  -91.6794   26.4430   -0.5048 C   0  0  0  0  0  0  0  0  0  0  0  0
  -90.9417   25.8433    0.6971 C   0  0  0  0  0  0  0  0  0  0  0  0
  -92.0172   25.3937   -1.4866 C   0  0  0  0  0  0  0  0  0  0  0  0
  -91.6775   24.0688   -1.2411 C   0  0  0  0  0  0  0  0  0  0  0  0
  -91.9875   23.0563   -2.1575 C   0  0  0  0  0  0  0  0  0  0  0  0
  -92.6374   23.3414   -3.3280 C   0  0  0  0  0  0  0  0  0  0  0  0
  -92.9845   24.6501   -3.5940 C   0  0  0  0  0  0  0  0  0  0  0  0
  -92.6710   25.6530   -2.6748 C   0  0  0  0  0  0  0  0  0  0  0  0
  -88.6634   35.2814   -3.3112 C   0  0  0  0  0  0  0  0  0  0  0  0
  -87.9240   34.0510   -3.7712 C   0  0  0  0  0  0  0  0  0  0  0  0
  -84.1308   31.8609    1.2588 N   0  0  0  0  0  0  0  0  0  0  0  0
  -83.5588   32.6310    1.7160 H   0  0  0  0  0  0  0  0  0  0  0  0
  -83.9197   30.5573    1.7446 C   0  0  0  0  0  0  0  0  0  0  0  0
  -82.7128   29.9413    1.5918 C   0  0  0  0  0  0  0  0  0  0  0  0
  -82.5256   28.6539    2.1040 C   0  0  0  0  0  0  0  0  0  0  0  0
  -83.5251   27.9768    2.7646 C   0  0  0  0  0  0  0  0  0  0  0  0
  -84.7378   28.6274    2.9035 C   0  0  0  0  0  0  0  0  0  0  0  0
  -84.9501   29.8823    2.4146 C   0  0  0  0  0  0  0  0  0  0  0  0
  -91.8809   30.3936   -3.1970 O   0  0  0  0  0  0  0  0  0  0  0  0
  -91.9000   30.0011   -4.5498 C   0  0  0  0  0  0  0  0  0  0  0  0
 26 27  1  0  0  0
 27  1  1  0  0  0
  1  2  1  0  0  0
  2  3  2  0  0  0
  3  4  1  0  0  0
  4  5  2  0  0  0
  5 28  1  0  0  0
 28 30  1  0  0  0
 30 31  2  0  0  0
 31 32  1  0  0  0
 32 33  2  0  0  0
 33 34  1  0  0  0
 34 35  2  0  0  0
  5  6  1  0  0  0
  6  7  2  0  0  0
  7  8  1  0  0  0
  8  9  2  0  0  0
  9 10  1  0  0  0
 10 14  1  0  0  0
 14 15  2  0  0  0
 14 16  1  0  0  0
 16 18  1  0  0  0
 18 19  1  0  0  0
 18 20  1  0  0  0
 20 21  2  0  0  0
 21 22  1  0  0  0
 22 23  2  0  0  0
 23 24  1  0  0  0
 24 25  2  0  0  0
 10 11  2  0  0  0
 11 36  1  0  0  0
 36 37  1  0  0  0
 11 12  1  0  0  0
 12 13  2  0  0  0
 13  1  1  0  0  0
  7  2  1  0  0  0
 13  8  1  0  0  0
 35 30  1  0  0  0
 25 20  1  0  0  0
 28 29  1  0  0  0
 16 17  1  0  0  0
M  END
> <minimizedAffinity>
-9.82299

> <CNNscore>
0.1777844131

> <CNNaffinity>
6.3211240768

> <CNN_VS>
1.1237972975

> <CNNaffinity_variance>
0.3354269564

$$$$
[H]c1c([H])c([H])c(N([H])c2c([H])c([H])c3c(c2[H])c2c([H])c(C(=O)N([H])[C@@]([H])(c4c([H])c([H])c([H])c([H])c4[H])C([H])([H])[H])c(OC([H])([H])[H])c([H])c2n3C([H])([H])C([H])([H])[H])c([H])c1[H]


 37 41  0  0  0  0  0  0  0  0999 V2000
  -87.4508   33.2080   -2.0843 N   0  0  0  0  0  0  0  0  0  0  0  0
  -86.3384   32.8914   -1.4256 C   0  0  0  0  0  0  0  0  0  0  0  0
  -85.2324   33.6385   -1.1093 C   0  0  0  0  0  0  0  0  0  0  0  0
  -84.1809   33.0453   -0.3982 C   0  0  0  0  0  0  0  0  0  0  0  0
  -84.1979   31.7326    0.0051 C   0  0  0  0  0  0  0  0  0  0  0  0
  -85.3391   30.9946   -0.3313 C   0  0  0  0  0  0  0  0  0  0  0  0
  -86.3723   31.5755   -1.0281 C   0  0  0  0  0  0  0  0  0  0  0  0
  -87.5899   31.0625   -1.4788 C   0  0  0  0  0  0  0  0  0  0  0  0
  -88.1819   29.8245   -1.3915 C   0  0  0  0  0  0  0  0  0  0  0  0
  -89.4425   29.5399   -1.9408 C   0  0  0  0  0  0  0  0  0  0  0  0
  -90.0740   30.5707   -2.5824 C   0  0  0  0  0  0  0  0  0  0  0  0
  -89.4543   31.8300   -2.6622 C   0  0  0  0  0  0  0  0  0  0  0  0
  -88.2192   32.0963   -2.1204 C   0  0  0  0  0  0  0  0  0  0  0  0
  -90.0109   28.2278   -1.8332 C   0  0  0  0  0  0  0  0  0  0  0  0
  -89.5173   27.5003   -0.8809 O   0  0  0  0  0  0  0  0  0  0  0  0
  -91.0075   27.6294   -2.5954 N   0  0  0  0  0  0  0  0  0  0  0  0
  -91.4843   28.0786   -3.3796 H   0  0  0  0  0  0  0  0  0  0  0  0
  -91.4496   26.2613   -2.3119 C   0  0  0  0  0  0  0  0  0  0  0  0
  -90.2670   25.3254   -2.5842 C   0  0  0  0  0  0  0  0  0  0  0  0
  -92.5953   25.9202   -3.1779 C   0  0  0  0  0  0  0  0  0  0  0  0
  -92.4240   25.7999   -4.5518 C   0  0  0  0  0  0  0  0  0  0  0  0
  -93.4959   25.4773   -5.3932 C   0  0  0  0  0  0  0  0  0  0  0  0
  -94.7504   25.2694   -4.8867 C   0  0  0  0  0  0  0  0  0  0  0  0
  -94.9451   25.3838   -3.5254 C   0  0  0  0  0  0  0  0  0  0  0  0
  -93.8708   25.7063   -2.6942 C   0  0  0  0  0  0  0  0  0  0  0  0
  -87.1310   35.6378   -1.9053 C   0  0  0  0  0  0  0  0  0  0  0  0
  -87.7866   34.5120   -2.6637 C   0  0  0  0  0  0  0  0  0  0  0  0
  -83.1523   31.0834    0.6909 N   0  0  0  0  0  0  0  0  0  0  0  0
  -82.1712   31.4372    0.4869 H   0  0  0  0  0  0  0  0  0  0  0  0
  -83.2526   30.0235    1.6110 C   0  0  0  0  0  0  0  0  0  0  0  0
  -84.3094   29.9400    2.4686 C   0  0  0  0  0  0  0  0  0  0  0  0
  -84.3936   28.8637    3.3570 C   0  0  0  0  0  0  0  0  0  0  0  0
  -83.4390   27.8734    3.3991 C   0  0  0  0  0  0  0  0  0  0  0  0
  -82.3791   27.9859    2.5174 C   0  0  0  0  0  0  0  0  0  0  0  0
  -82.2699   29.0237    1.6401 C   0  0  0  0  0  0  0  0  0  0  0  0
  -91.3213   30.4364   -3.1717 O   0  0  0  0  0  0  0  0  0  0  0  0
  -91.4853   30.4662   -4.5706 C   0  0  0  0  0  0  0  0  0  0  0  0
 26 27  1  0  0  0
 27  1  1  0  0  0
  1  2  1  0  0  0
  2  3  2  0  0  0
  3  4  1  0  0  0
  4  5  2  0  0  0
  5 28  1  0  0  0
 28 30  1  0  0  0
 30 31  2  0  0  0
 31 32  1  0  0  0
 32 33  2  0  0  0
 33 34  1  0  0  0
 34 35  2  0  0  0
  5  6  1  0  0  0
  6  7  2  0  0  0
  7  8  1  0  0  0
  8  9  2  0  0  0
  9 10  1  0  0  0
 10 14  1  0  0  0
 14 15  2  0  0  0
 14 16  1  0  0  0
 16 18  1  0  0  0
 18 19  1  0  0  0
 18 20  1  0  0  0
 20 21  2  0  0  0
 21 22  1  0  0  0
 22 23  2  0  0  0
 23 24  1  0  0  0
 24 25  2  0  0  0
 10 11  2  0  0  0
 11 36  1  0  0  0
 36 37  1  0  0  0
 11 12  1  0  0  0
 12 13  2  0  0  0
 13  1  1  0  0  0
  7  2  1  0  0  0
 13  8  1  0  0  0
 35 30  1  0  0  0
 25 20  1  0  0  0
 28 29  1  0  0  0
 16 17  1  0  0  0
M  END
> <minimizedAffinity>
-5.62956

> <CNNscore>
0.1669433415

> <CNNaffinity>
6.2744960785

> <CNN_VS>
1.0474853516

> <CNNaffinity_variance>
0.2403550893

$$$$
[H]c1c([H])c([H])c(N([H])c2c([H])c([H])c3c(c2[H])c2c([H])c(C(=O)N([H])[C@@]([H])(c4c([H])c([H])c([H])c([H])c4[H])C([H])([H])[H])c(OC([H])([H])[H])c([H])c2n3C([H])([H])C([H])([H])[H])c([H])c1[H]


 37 41  0  0  0  0  0  0  0  0999 V2000
  -85.6577   31.3407   -0.0656 N   0  0  0  0  0  0  0  0  0  0  0  0
  -86.3009   32.2465   -0.7985 C   0  0  0  0  0  0  0  0  0  0  0  0
  -85.8844   33.4420   -1.3266 C   0  0  0  0  0  0  0  0  0  0  0  0
  -86.7842   34.2174   -2.0698 C   0  0  0  0  0  0  0  0  0  0  0  0
  -88.0840   33.8386   -2.3010 C   0  0  0  0  0  0  0  0  0  0  0  0
  -88.4810   32.6141   -1.7504 C   0  0  0  0  0  0  0  0  0  0  0  0
  -87.5990   31.8515   -1.0217 C   0  0  0  0  0  0  0  0  0  0  0  0
  -87.7493   30.6219   -0.3782 C   0  0  0  0  0  0  0  0  0  0  0  0
  -88.8046   29.7508   -0.2434 C   0  0  0  0  0  0  0  0  0  0  0  0
  -88.7147   28.5467    0.4735 C   0  0  0  0  0  0  0  0  0  0  0  0
  -87.5036   28.2683    1.0469 C   0  0  0  0  0  0  0  0  0  0  0  0
  -86.4353   29.1700    0.8989 C   0  0  0  0  0  0  0  0  0  0  0  0
  -86.5358   30.3462    0.1945 C   0  0  0  0  0  0  0  0  0  0  0  0
  -89.8493   27.6781    0.5949 C   0  0  0  0  0  0  0  0  0  0  0  0
  -90.9690   28.2816    0.8433 O   0  0  0  0  0  0  0  0  0  0  0  0
  -89.9208   26.2943    0.4839 N   0  0  0  0  0  0  0  0  0  0  0  0
  -89.1210   25.6870    0.2949 H   0  0  0  0  0  0  0  0  0  0  0  0
  -91.1982   25.5938    0.6417 C   0  0  0  0  0  0  0  0  0  0  0  0
  -91.0230   24.5535    1.7532 C   0  0  0  0  0  0  0  0  0  0  0  0
  -91.5673   24.9417   -0.6301 C   0  0  0  0  0  0  0  0  0  0  0  0
  -91.7640   23.5670   -0.6816 C   0  0  0  0  0  0  0  0  0  0  0  0
  -92.1145   22.9263   -1.8765 C   0  0  0  0  0  0  0  0  0  0  0  0
  -92.2751   23.6370   -3.0352 C   0  0  0  0  0  0  0  0  0  0  0  0
  -92.0847   25.0034   -3.0088 C   0  0  0  0  0  0  0  0  0  0  0  0
  -91.7349   25.6337   -1.8132 C   0  0  0  0  0  0  0  0  0  0  0  0
  -84.1671   31.6188    1.8681 C   0  0  0  0  0  0  0  0  0  0  0  0
  -84.2623   31.4021    0.3794 C   0  0  0  0  0  0  0  0  0  0  0  0
  -89.0339   34.5987   -3.0116 N   0  0  0  0  0  0  0  0  0  0  0  0
  -90.0494   34.4513   -2.7354 H   0  0  0  0  0  0  0  0  0  0  0  0
  -88.7980   35.5268   -4.0427 C   0  0  0  0  0  0  0  0  0  0  0  0
  -89.0756   36.8504   -3.8687 C   0  0  0  0  0  0  0  0  0  0  0  0
  -88.8105   37.7527   -4.9032 C   0  0  0  0  0  0  0  0  0  0  0  0
  -88.2735   37.3509   -6.1048 C   0  0  0  0  0  0  0  0  0  0  0  0
  -88.0032   36.0023   -6.2515 C   0  0  0  0  0  0  0  0  0  0  0  0
  -88.2510   35.0990   -5.2608 C   0  0  0  0  0  0  0  0  0  0  0  0
  -87.2683   27.1176    1.7829 O   0  0  0  0  0  0  0  0  0  0  0  0
  -85.9753   26.5733    1.9112 C   0  0  0  0  0  0  0  0  0  0  0  0
 26 27  1  0  0  0
 27  1  1  0  0  0
  1  2  1  0  0  0
  2  3  2  0  0  0
  3  4  1  0  0  0
  4  5  2  0  0  0
  5 28  1  0  0  0
 28 30  1  0  0  0
 30 31  2  0  0  0
 31 32  1  0  0  0
 32 33  2  0  0  0
 33 34  1  0  0  0
 34 35  2  0  0  0
  5  6  1  0  0  0
  6  7  2  0  0  0
  7  8  1  0  0  0
  8  9  2  0  0  0
  9 10  1  0  0  0
 10 14  1  0  0  0
 14 15  2  0  0  0
 14 16  1  0  0  0
 16 18  1  0  0  0
 18 19  1  0  0  0
 18 20  1  0  0  0
 20 21  2  0  0  0
 21 22  1  0  0  0
 22 23  2  0  0  0
 23 24  1  0  0  0
 24 25  2  0  0  0
 10 11  2  0  0  0
 11 36  1  0  0  0
 36 37  1  0  0  0
 11 12  1  0  0  0
 12 13  2  0  0  0
 13  1  1  0  0  0
  7  2  1  0  0  0
 13  8  1  0  0  0
 35 30  1  0  0  0
 25 20  1  0  0  0
 28 29  1  0  0  0
 16 17  1  0  0  0
M  END
> <minimizedAffinity>
-8.61863

> <CNNscore>
0.1455951035

> <CNNaffinity>
6.1433081627

> <CNN_VS>
0.8944355845

> <CNNaffinity_variance>
0.2838174999

$$$$
[H]c1c(OC([H])([H])[H])c([H])c(N([H])c2nc(N([H])[C@@]3([H])C([H])([H])[C@@]4([H])N(C([H])([H])[H])[C@]([H])(C([H])([H])C4([H])[H])C3([H])[H])c([H])c(C([H])([H])[H])c2[H])c([H])c1C(=O)N([H])C([H])([H])C1([H])C([H])([H])C1([H])[H]


 36 40  0  0  0  0  0  0  0  0999 V2000
  -86.4129   27.5897    1.1491 N   0  0  0  0  0  0  0  0  0  0  0  0
  -85.8000   26.7370    0.9501 H   0  0  0  0  0  0  0  0  0  0  0  0
  -85.9478   28.8861    0.8827 C   0  0  0  0  0  0  0  0  0  0  0  0
  -84.6703   29.2901    1.1655 C   0  0  0  0  0  0  0  0  0  0  0  0
  -84.2283   30.5832    0.8666 C   0  0  0  0  0  0  0  0  0  0  0  0
  -82.8426   31.0187    1.1737 C   0  0  0  0  0  0  0  0  0  0  0  0
  -85.1131   31.4414    0.2804 C   0  0  0  0  0  0  0  0  0  0  0  0
  -86.3950   31.0580   -0.0093 C   0  0  0  0  0  0  0  0  0  0  0  0
  -86.7585   29.8105    0.2986 N   0  0  0  0  0  0  0  0  0  0  0  0
  -87.2957   31.9701   -0.5896 N   0  0  0  0  0  0  0  0  0  0  0  0
  -87.8015   32.5982    0.1156 H   0  0  0  0  0  0  0  0  0  0  0  0
  -87.5819   32.1237   -2.0004 C   0  0  0  0  0  0  0  0  0  0  0  0
  -88.1323   30.7976   -2.4735 C   0  0  0  0  0  0  0  0  0  0  0  0
  -88.9317   30.9492   -3.7404 C   0  0  0  0  0  0  0  0  0  0  0  0
  -88.2411   31.7558   -4.8023 C   0  0  0  0  0  0  0  0  0  0  0  0
  -88.8925   33.1018   -4.7144 C   0  0  0  0  0  0  0  0  0  0  0  0
  -89.5266   33.0520   -3.3388 C   0  0  0  0  0  0  0  0  0  0  0  0
  -88.5389   33.2587   -2.2439 C   0  0  0  0  0  0  0  0  0  0  0  0
  -90.1153   31.7308   -3.3469 N   0  0  0  0  0  0  0  0  0  0  0  0
  -91.1976   31.6166   -4.2696 C   0  0  0  0  0  0  0  0  0  0  0  0
  -90.0816   27.6084    1.9161 C   0  0  0  0  0  0  0  0  0  0  0  0
  -88.8532   27.9462    1.3738 C   0  0  0  0  0  0  0  0  0  0  0  0
  -87.6808   27.3000    1.6828 C   0  0  0  0  0  0  0  0  0  0  0  0
  -87.8272   26.2488    2.6109 C   0  0  0  0  0  0  0  0  0  0  0  0
  -89.0267   25.8949    3.1609 C   0  0  0  0  0  0  0  0  0  0  0  0
  -90.1765   26.5736    2.8190 C   0  0  0  0  0  0  0  0  0  0  0  0
  -89.1246   24.7793    4.1161 C   0  0  0  0  0  0  0  0  0  0  0  0
  -90.2167   24.1963    4.2694 O   0  0  0  0  0  0  0  0  0  0  0  0
  -88.0171   24.3285    4.8813 N   0  0  0  0  0  0  0  0  0  0  0  0
  -87.0942   24.7910    4.7746 H   0  0  0  0  0  0  0  0  0  0  0  0
  -88.1241   23.2319    5.8161 C   0  0  0  0  0  0  0  0  0  0  0  0
  -86.8586   23.1052    6.6487 C   0  0  0  0  0  0  0  0  0  0  0  0
  -87.0811   22.5544    8.0476 C   0  0  0  0  0  0  0  0  0  0  0  0
  -86.6621   23.9666    7.8609 C   0  0  0  0  0  0  0  0  0  0  0  0
  -91.3717   28.8799    0.2742 C   0  0  0  0  0  0  0  0  0  0  0  0
  -91.2227   28.3121    1.5507 O   0  0  0  0  0  0  0  0  0  0  0  0
 35 36  1  0  0  0
 36 21  1  0  0  0
 21 22  2  0  0  0
 22 23  1  0  0  0
 23  1  1  0  0  0
  1  3  1  0  0  0
  3  4  2  0  0  0
  4  5  1  0  0  0
  5  6  1  0  0  0
  5  7  2  0  0  0
  7  8  1  0  0  0
  8 10  1  0  0  0
 10 12  1  0  0  0
 12 13  1  0  0  0
 13 14  1  0  0  0
 14 15  1  0  0  0
 15 16  1  0  0  0
 16 17  1  0  0  0
 17 18  1  0  0  0
 17 19  1  0  0  0
 19 20  1  0  0  0
  8  9  2  0  0  0
 23 24  2  0  0  0
 24 25  1  0  0  0
 25 26  2  0  0  0
 25 27  1  0  0  0
 27 28  2  0  0  0
 27 29  1  0  0  0
 29 31  1  0  0  0
 31 32  1  0  0  0
 32 33  1  0  0  0
 33 34  1  0  0  0
 26 21  1  0  0  0
 34 32  1  0  0  0
  9  3  1  0  0  0
 18 12  1  0  0  0
 19 14  1  0  0  0
  1  2  1  0  0  0
 10 11  1  0  0  0
 29 30  1  0  0  0
M  END
> <minimizedAffinity>
-9.13874

> <CNNscore>
0.2519397140

> <CNNaffinity>
6.7346696854

> <CNN_VS>
1.6967307329

> <CNNaffinity_variance>
0.0280348063

$$$$
[H]c1c(OC([H])([H])[H])c([H])c(N([H])c2nc(N([H])[C@@]3([H])C([H])([H])[C@@]4([H])N(C([H])([H])[H])[C@]([H])(C([H])([H])C4([H])[H])C3([H])[H])c([H])c(C([H])([H])[H])c2[H])c([H])c1C(=O)N([H])C([H])([H])C1([H])C([H])([H])C1([H])[H]


 36 40  0  0  0  0  0  0  0  0999 V2000
  -86.4584   32.9015   -0.7488 N   0  0  0  0  0  0  0  0  0  0  0  0
  -86.3871   33.8197   -0.2066 H   0  0  0  0  0  0  0  0  0  0  0  0
  -85.9676   31.7057   -0.2037 C   0  0  0  0  0  0  0  0  0  0  0  0
  -84.7028   31.5859    0.3072 C   0  0  0  0  0  0  0  0  0  0  0  0
  -84.2494   30.3862    0.8658 C   0  0  0  0  0  0  0  0  0  0  0  0
  -82.8778   30.2590    1.4196 C   0  0  0  0  0  0  0  0  0  0  0  0
  -85.1092   29.3264    0.8877 C   0  0  0  0  0  0  0  0  0  0  0  0
  -86.3772   29.4247    0.3809 C   0  0  0  0  0  0  0  0  0  0  0  0
  -86.7532   30.5960   -0.1384 N   0  0  0  0  0  0  0  0  0  0  0  0
  -87.2352   28.3095    0.3915 N   0  0  0  0  0  0  0  0  0  0  0  0
  -87.0994   27.6418   -0.4353 H   0  0  0  0  0  0  0  0  0  0  0  0
  -88.2421   28.0028    1.3855 C   0  0  0  0  0  0  0  0  0  0  0  0
  -89.5359   27.7882    0.6337 C   0  0  0  0  0  0  0  0  0  0  0  0
  -90.5193   26.9830    1.4408 C   0  0  0  0  0  0  0  0  0  0  0  0
  -90.6876   27.4665    2.8526 C   0  0  0  0  0  0  0  0  0  0  0  0
  -89.8650   26.5115    3.6619 C   0  0  0  0  0  0  0  0  0  0  0  0
  -88.9673   25.9000    2.6050 C   0  0  0  0  0  0  0  0  0  0  0  0
  -87.8529   26.8034    2.2062 C   0  0  0  0  0  0  0  0  0  0  0  0
  -89.9153   25.6446    1.5428 N   0  0  0  0  0  0  0  0  0  0  0  0
  -90.8565   24.6262    1.8788 C   0  0  0  0  0  0  0  0  0  0  0  0
  -88.3141   32.1466   -3.9166 C   0  0  0  0  0  0  0  0  0  0  0  0
  -87.7138   31.9893   -2.6789 C   0  0  0  0  0  0  0  0  0  0  0  0
  -87.0675   33.0018   -2.0119 C   0  0  0  0  0  0  0  0  0  0  0  0
  -87.0619   34.2341   -2.6970 C   0  0  0  0  0  0  0  0  0  0  0  0
  -87.6464   34.4164   -3.9183 C   0  0  0  0  0  0  0  0  0  0  0  0
  -88.2840   33.3694   -4.5481 C   0  0  0  0  0  0  0  0  0  0  0  0
  -87.6223   35.7293   -4.5833 C   0  0  0  0  0  0  0  0  0  0  0  0
  -88.6688   36.1792   -5.0921 O   0  0  0  0  0  0  0  0  0  0  0  0
  -86.4465   36.5197   -4.6728 N   0  0  0  0  0  0  0  0  0  0  0  0
  -85.5604   36.1746   -4.2571 H   0  0  0  0  0  0  0  0  0  0  0  0
  -86.4341   37.8076   -5.3277 C   0  0  0  0  0  0  0  0  0  0  0  0
  -86.4614   37.6465   -6.8390 C   0  0  0  0  0  0  0  0  0  0  0  0
  -86.1946   38.9281   -7.6111 C   0  0  0  0  0  0  0  0  0  0  0  0
  -87.5403   38.3017   -7.6495 C   0  0  0  0  0  0  0  0  0  0  0  0
  -90.3469   30.9264   -4.5132 C   0  0  0  0  0  0  0  0  0  0  0  0
  -88.9494   31.0711   -4.5253 O   0  0  0  0  0  0  0  0  0  0  0  0
 35 36  1  0  0  0
 36 21  1  0  0  0
 21 22  2  0  0  0
 22 23  1  0  0  0
 23  1  1  0  0  0
  1  3  1  0  0  0
  3  4  2  0  0  0
  4  5  1  0  0  0
  5  6  1  0  0  0
  5  7  2  0  0  0
  7  8  1  0  0  0
  8 10  1  0  0  0
 10 12  1  0  0  0
 12 13  1  0  0  0
 13 14  1  0  0  0
 14 15  1  0  0  0
 15 16  1  0  0  0
 16 17  1  0  0  0
 17 18  1  0  0  0
 17 19  1  0  0  0
 19 20  1  0  0  0
  8  9  2  0  0  0
 23 24  2  0  0  0
 24 25  1  0  0  0
 25 26  2  0  0  0
 25 27  1  0  0  0
 27 28  2  0  0  0
 27 29  1  0  0  0
 29 31  1  0  0  0
 31 32  1  0  0  0
 32 33  1  0  0  0
 33 34  1  0  0  0
 26 21  1  0  0  0
 34 32  1  0  0  0
  9  3  1  0  0  0
 18 12  1  0  0  0
 19 14  1  0  0  0
  1  2  1  0  0  0
 10 11  1  0  0  0
 29 30  1  0  0  0
M  END
> <minimizedAffinity>
-8.42987

> <CNNscore>
0.1931971163

> <CNNaffinity>
6.6304550171

> <CNN_VS>
1.2809847593

> <CNNaffinity_variance>
0.1208075732

$$$$
[H]c1c(OC([H])([H])[H])c([H])c(N([H])c2nc(N([H])[C@@]3([H])C([H])([H])[C@@]4([H])N(C([H])([H])[H])[C@]([H])(C([H])([H])C4([H])[H])C3([H])[H])c([H])c(C([H])([H])[H])c2[H])c([H])c1C(=O)N([H])C([H])([H])C1([H])C([H])([H])C1([H])[H]


 36 40  0  0  0  0  0  0  0  0999 V2000
  -85.5408   32.4466   -0.1588 N   0  0  0  0  0  0  0  0  0  0  0  0
  -84.8293   33.2395   -0.0726 H   0  0  0  0  0  0  0  0  0  0  0  0
  -85.2998   31.1979    0.4331 C   0  0  0  0  0  0  0  0  0  0  0  0
  -84.0635   30.8130    0.8789 C   0  0  0  0  0  0  0  0  0  0  0  0
  -83.8587   29.5698    1.4866 C   0  0  0  0  0  0  0  0  0  0  0  0
  -82.5175   29.1550    1.9696 C   0  0  0  0  0  0  0  0  0  0  0  0
  -84.9343   28.7409    1.6244 C   0  0  0  0  0  0  0  0  0  0  0  0
  -86.1783   29.1058    1.1843 C   0  0  0  0  0  0  0  0  0  0  0  0
  -86.3117   30.3055    0.6131 N   0  0  0  0  0  0  0  0  0  0  0  0
  -87.2656   28.2222    1.3142 N   0  0  0  0  0  0  0  0  0  0  0  0
  -87.5670   28.0408    2.3261 H   0  0  0  0  0  0  0  0  0  0  0  0
  -87.9805   27.5672    0.2391 C   0  0  0  0  0  0  0  0  0  0  0  0
  -88.1559   26.1249    0.6566 C   0  0  0  0  0  0  0  0  0  0  0  0
  -89.2876   25.4662   -0.0865 C   0  0  0  0  0  0  0  0  0  0  0  0
  -89.2514   25.6888   -1.5712 C   0  0  0  0  0  0  0  0  0  0  0  0
  -90.2688   26.7641   -1.8001 C   0  0  0  0  0  0  0  0  0  0  0  0
  -90.4229   27.3485   -0.4104 C   0  0  0  0  0  0  0  0  0  0  0  0
  -89.2946   28.2456   -0.0370 C   0  0  0  0  0  0  0  0  0  0  0  0
  -90.5002   26.1486    0.3936 N   0  0  0  0  0  0  0  0  0  0  0  0
  -91.6951   25.4052    0.1584 C   0  0  0  0  0  0  0  0  0  0  0  0
  -89.0088   32.4493   -1.5807 C   0  0  0  0  0  0  0  0  0  0  0  0
  -87.8919   32.0850   -0.8478 C   0  0  0  0  0  0  0  0  0  0  0  0
  -86.6971   32.7619   -0.8937 C   0  0  0  0  0  0  0  0  0  0  0  0
  -86.6958   33.8744   -1.7597 C   0  0  0  0  0  0  0  0  0  0  0  0
  -87.7831   34.2555   -2.4937 C   0  0  0  0  0  0  0  0  0  0  0  0
  -88.9609   33.5442   -2.4137 C   0  0  0  0  0  0  0  0  0  0  0  0
  -87.7305   35.4346   -3.3731 C   0  0  0  0  0  0  0  0  0  0  0  0
  -88.5364   36.3700   -3.1948 O   0  0  0  0  0  0  0  0  0  0  0  0
  -86.7904   35.5593   -4.4296 N   0  0  0  0  0  0  0  0  0  0  0  0
  -86.1049   34.7995   -4.6020 H   0  0  0  0  0  0  0  0  0  0  0  0
  -86.7472   36.7216   -5.2868 C   0  0  0  0  0  0  0  0  0  0  0  0
  -87.4802   36.4586   -6.5924 C   0  0  0  0  0  0  0  0  0  0  0  0
  -87.2205   37.4919   -7.6762 C   0  0  0  0  0  0  0  0  0  0  0  0
  -88.5636   37.3890   -7.0514 C   0  0  0  0  0  0  0  0  0  0  0  0
  -90.7025   30.9839   -2.5610 C   0  0  0  0  0  0  0  0  0  0  0  0
  -90.1817   31.7114   -1.4777 O   0  0  0  0  0  0  0  0  0  0  0  0
 35 36  1  0  0  0
 36 21  1  0  0  0
 21 22  2  0  0  0
 22 23  1  0  0  0
 23  1  1  0  0  0
  1  3  1  0  0  0
  3  4  2  0  0  0
  4  5  1  0  0  0
  5  6  1  0  0  0
  5  7  2  0  0  0
  7  8  1  0  0  0
  8 10  1  0  0  0
 10 12  1  0  0  0
 12 13  1  0  0  0
 13 14  1  0  0  0
 14 15  1  0  0  0
 15 16  1  0  0  0
 16 17  1  0  0  0
 17 18  1  0  0  0
 17 19  1  0  0  0
 19 20  1  0  0  0
  8  9  2  0  0  0
 23 24  2  0  0  0
 24 25  1  0  0  0
 25 26  2  0  0  0
 25 27  1  0  0  0
 27 28  2  0  0  0
 27 29  1  0  0  0
 29 31  1  0  0  0
 31 32  1  0  0  0
 32 33  1  0  0  0
 33 34  1  0  0  0
 26 21  1  0  0  0
 34 32  1  0  0  0
  9  3  1  0  0  0
 18 12  1  0  0  0
 19 14  1  0  0  0
  1  2  1  0  0  0
 10 11  1  0  0  0
 29 30  1  0  0  0
M  END
> <minimizedAffinity>
-9.01024

> <CNNscore>
0.1816689074

> <CNNaffinity>
6.6554822922

> <CNN_VS>
1.2090941668

> <CNNaffinity_variance>
0.1267078370

$$$$
[H]c1c(OC([H])([H])[H])c([H])c(N([H])c2nc(N([H])[C@@]3([H])C([H])([H])[C@@]4([H])N(C([H])([H])[H])[C@]([H])(C([H])([H])C4([H])[H])C3([H])[H])c([H])c(C([H])([H])[H])c2[H])c([H])c1C(=O)N([H])C([H])([H])C1([H])C([H])([H])C1([H])[H]


 36 40  0  0  0  0  0  0  0  0999 V2000
  -89.8512   32.0649   -1.2540 N   0  0  0  0  0  0  0  0  0  0  0  0
  -90.6465   32.7097   -0.9472 H   0  0  0  0  0  0  0  0  0  0  0  0
  -88.5646   32.5727   -1.4876 C   0  0  0  0  0  0  0  0  0  0  0  0
  -87.5208   32.3790   -0.6226 C   0  0  0  0  0  0  0  0  0  0  0  0
  -86.2425   32.8781   -0.8944 C   0  0  0  0  0  0  0  0  0  0  0  0
  -85.1124   32.6663    0.0447 C   0  0  0  0  0  0  0  0  0  0  0  0
  -86.0608   33.5713   -2.0560 C   0  0  0  0  0  0  0  0  0  0  0  0
  -87.0912   33.7773   -2.9336 C   0  0  0  0  0  0  0  0  0  0  0  0
  -88.2885   33.2759   -2.6199 N   0  0  0  0  0  0  0  0  0  0  0  0
  -86.8840   34.5182   -4.1117 N   0  0  0  0  0  0  0  0  0  0  0  0
  -86.5131   33.9415   -4.9349 H   0  0  0  0  0  0  0  0  0  0  0  0
  -87.1216   35.9345   -4.2954 C   0  0  0  0  0  0  0  0  0  0  0  0
  -87.5663   36.1126   -5.7291 C   0  0  0  0  0  0  0  0  0  0  0  0
  -88.3213   37.4013   -5.9196 C   0  0  0  0  0  0  0  0  0  0  0  0
  -87.6408   38.5988   -5.3211 C   0  0  0  0  0  0  0  0  0  0  0  0
  -88.3801   38.8311   -4.0391 C   0  0  0  0  0  0  0  0  0  0  0  0
  -89.0654   37.4960   -3.8281 C   0  0  0  0  0  0  0  0  0  0  0  0
  -88.1384   36.4503   -3.3138 C   0  0  0  0  0  0  0  0  0  0  0  0
  -89.5675   37.2232   -5.1568 N   0  0  0  0  0  0  0  0  0  0  0  0
  -90.6017   38.1243   -5.5497 C   0  0  0  0  0  0  0  0  0  0  0  0
  -90.9863   28.7697   -2.6330 C   0  0  0  0  0  0  0  0  0  0  0  0
  -90.6703   30.1147   -2.5420 C   0  0  0  0  0  0  0  0  0  0  0  0
  -90.2035   30.7113   -1.3957 C   0  0  0  0  0  0  0  0  0  0  0  0
  -90.0695   29.8336   -0.3005 C   0  0  0  0  0  0  0  0  0  0  0  0
  -90.3740   28.5033   -0.3632 C   0  0  0  0  0  0  0  0  0  0  0  0
  -90.8390   27.9503   -1.5369 C   0  0  0  0  0  0  0  0  0  0  0  0
  -90.2025   27.6289    0.8083 C   0  0  0  0  0  0  0  0  0  0  0  0
  -90.9215   26.6167    0.9296 O   0  0  0  0  0  0  0  0  0  0  0  0
  -89.2416   27.8870    1.8210 N   0  0  0  0  0  0  0  0  0  0  0  0
  -88.6264   28.7196    1.7478 H   0  0  0  0  0  0  0  0  0  0  0  0
  -89.0813   27.0216    2.9669 C   0  0  0  0  0  0  0  0  0  0  0  0
  -90.0729   27.3831    4.0609 C   0  0  0  0  0  0  0  0  0  0  0  0
  -89.8711   26.6281    5.3644 C   0  0  0  0  0  0  0  0  0  0  0  0
  -91.0762   26.3738    4.5350 C   0  0  0  0  0  0  0  0  0  0  0  0
  -92.4476   27.2512   -3.8723 C   0  0  0  0  0  0  0  0  0  0  0  0
  -91.4528   28.2425   -3.8311 O   0  0  0  0  0  0  0  0  0  0  0  0
 35 36  1  0  0  0
 36 21  1  0  0  0
 21 22  2  0  0  0
 22 23  1  0  0  0
 23  1  1  0  0  0
  1  3  1  0  0  0
  3  4  2  0  0  0
  4  5  1  0  0  0
  5  6  1  0  0  0
  5  7  2  0  0  0
  7  8  1  0  0  0
  8 10  1  0  0  0
 10 12  1  0  0  0
 12 13  1  0  0  0
 13 14  1  0  0  0
 14 15  1  0  0  0
 15 16  1  0  0  0
 16 17  1  0  0  0
 17 18  1  0  0  0
 17 19  1  0  0  0
 19 20  1  0  0  0
  8  9  2  0  0  0
 23 24  2  0  0  0
 24 25  1  0  0  0
 25 26  2  0  0  0
 25 27  1  0  0  0
 27 28  2  0  0  0
 27 29  1  0  0  0
 29 31  1  0  0  0
 31 32  1  0  0  0
 32 33  1  0  0  0
 33 34  1  0  0  0
 26 21  1  0  0  0
 34 32  1  0  0  0
  9  3  1  0  0  0
 18 12  1  0  0  0
 19 14  1  0  0  0
  1  2  1  0  0  0
 10 11  1  0  0  0
 29 30  1  0  0  0
M  END
> <minimizedAffinity>
-7.86082

> <CNNscore>
0.1147101149

> <CNNaffinity>
5.9605035782

> <CNN_VS>
0.6837300658

> <CNNaffinity_variance>
0.2596018910

$$$$
[H]c1c(OC([H])([H])[H])c([H])c(N([H])c2nc(N([H])[C@@]3([H])C([H])([H])[C@@]4([H])N(C([H])([H])[H])[C@]([H])(C([H])([H])C4([H])[H])C3([H])[H])c([H])c(C([H])([H])[H])c2[H])c([H])c1C(=O)N([H])C([H])([H])C1([H])C([H])([H])C1([H])[H]


 36 40  0  0  0  0  0  0  0  0999 V2000
  -87.0588   28.4519   -0.4806 N   0  0  0  0  0  0  0  0  0  0  0  0
  -86.7869   27.8059   -1.2874 H   0  0  0  0  0  0  0  0  0  0  0  0
  -86.1936   29.4699   -0.0529 C   0  0  0  0  0  0  0  0  0  0  0  0
  -85.0056   29.2183    0.5801 C   0  0  0  0  0  0  0  0  0  0  0  0
  -84.1523   30.2544    0.9741 C   0  0  0  0  0  0  0  0  0  0  0  0
  -82.8645   29.9791    1.6598 C   0  0  0  0  0  0  0  0  0  0  0  0
  -84.5389   31.5363    0.7095 C   0  0  0  0  0  0  0  0  0  0  0  0
  -85.7231   31.8095    0.0791 C   0  0  0  0  0  0  0  0  0  0  0  0
  -86.4951   30.7787   -0.2739 N   0  0  0  0  0  0  0  0  0  0  0  0
  -86.1111   33.1410   -0.1584 N   0  0  0  0  0  0  0  0  0  0  0  0
  -85.7101   33.8476    0.5399 H   0  0  0  0  0  0  0  0  0  0  0  0
  -86.9697   33.6145   -1.2236 C   0  0  0  0  0  0  0  0  0  0  0  0
  -86.2112   33.4003   -2.5135 C   0  0  0  0  0  0  0  0  0  0  0  0
  -87.1364   33.3592   -3.7007 C   0  0  0  0  0  0  0  0  0  0  0  0
  -88.1293   34.4854   -3.7370 C   0  0  0  0  0  0  0  0  0  0  0  0
  -89.3991   33.8635   -3.2425 C   0  0  0  0  0  0  0  0  0  0  0  0
  -88.8867   32.6159   -2.5513 C   0  0  0  0  0  0  0  0  0  0  0  0
  -88.2949   32.9022   -1.2153 C   0  0  0  0  0  0  0  0  0  0  0  0
  -87.9270   32.1311   -3.5189 N   0  0  0  0  0  0  0  0  0  0  0  0
  -88.5423   31.6743   -4.7224 C   0  0  0  0  0  0  0  0  0  0  0  0
  -89.8161   27.5752    1.9022 C   0  0  0  0  0  0  0  0  0  0  0  0
  -88.5515   27.7983    1.3843 C   0  0  0  0  0  0  0  0  0  0  0  0
  -88.3178   28.1946    0.0897 C   0  0  0  0  0  0  0  0  0  0  0  0
  -89.4848   28.3586   -0.6843 C   0  0  0  0  0  0  0  0  0  0  0  0
  -90.7437   28.1453   -0.1985 C   0  0  0  0  0  0  0  0  0  0  0  0
  -90.9274   27.7486    1.1086 C   0  0  0  0  0  0  0  0  0  0  0  0
  -91.9293   28.3446   -1.0476 C   0  0  0  0  0  0  0  0  0  0  0  0
  -92.3143   29.5036   -1.3024 O   0  0  0  0  0  0  0  0  0  0  0  0
  -92.6652   27.2632   -1.5994 N   0  0  0  0  0  0  0  0  0  0  0  0
  -92.3688   26.2872   -1.4083 H   0  0  0  0  0  0  0  0  0  0  0  0
  -93.8277   27.4702   -2.4323 C   0  0  0  0  0  0  0  0  0  0  0  0
  -93.4652   27.3598   -3.9044 C   0  0  0  0  0  0  0  0  0  0  0  0
  -93.6634   25.9742   -4.4966 C   0  0  0  0  0  0  0  0  0  0  0  0
  -92.2945   26.5261   -4.3340 C   0  0  0  0  0  0  0  0  0  0  0  0
  -90.4132   28.0582    4.2232 C   0  0  0  0  0  0  0  0  0  0  0  0
  -89.9679   27.1760    3.2244 O   0  0  0  0  0  0  0  0  0  0  0  0
 35 36  1  0  0  0
 36 21  1  0  0  0
 21 22  2  0  0  0
 22 23  1  0  0  0
 23  1  1  0  0  0
  1  3  1  0  0  0
  3  4  2  0  0  0
  4  5  1  0  0  0
  5  6  1  0  0  0
  5  7  2  0  0  0
  7  8  1  0  0  0
  8 10  1  0  0  0
 10 12  1  0  0  0
 12 13  1  0  0  0
 13 14  1  0  0  0
 14 15  1  0  0  0
 15 16  1  0  0  0
 16 17  1  0  0  0
 17 18  1  0  0  0
 17 19  1  0  0  0
 19 20  1  0  0  0
  8  9  2  0  0  0
 23 24  2  0  0  0
 24 25  1  0  0  0
 25 26  2  0  0  0
 25 27  1  0  0  0
 27 28  2  0  0  0
 27 29  1  0  0  0
 29 31  1  0  0  0
 31 32  1  0  0  0
 32 33  1  0  0  0
 33 34  1  0  0  0
 26 21  1  0  0  0
 34 32  1  0  0  0
  9  3  1  0  0  0
 18 12  1  0  0  0
 19 14  1  0  0  0
  1  2  1  0  0  0
 10 11  1  0  0  0
 29 30  1  0  0  0
M  END
> <minimizedAffinity>
-8.26141

> <CNNscore>
0.0955504403

> <CNNaffinity>
6.3091650009

> <CNN_VS>
0.6028435230

> <CNNaffinity_variance>
0.4682465494

$$$$
[H]c1c(OC([H])([H])[H])c([H])c(N([H])c2nc(N([H])[C@@]3([H])C([H])([H])[C@@]4([H])N(C([H])([H])[H])[C@]([H])(C([H])([H])C4([H])[H])C3([H])[H])c([H])c(C([H])([H])[H])c2[H])c([H])c1C(=O)N([H])C([H])([H])C1([H])C([H])([H])C1([H])[H]


 36 40  0  0  0  0  0  0  0  0999 V2000
  -86.6476   27.3565    0.5898 N   0  0  0  0  0  0  0  0  0  0  0  0
  -85.9998   26.5938    0.2142 H   0  0  0  0  0  0  0  0  0  0  0  0
  -86.2506   28.7019    0.5860 C   0  0  0  0  0  0  0  0  0  0  0  0
  -85.0409   29.1212    1.0717 C   0  0  0  0  0  0  0  0  0  0  0  0
  -84.6632   30.4676    1.0329 C   0  0  0  0  0  0  0  0  0  0  0  0
  -83.3508   30.9196    1.5597 C   0  0  0  0  0  0  0  0  0  0  0  0
  -85.5415   31.3623    0.4935 C   0  0  0  0  0  0  0  0  0  0  0  0
  -86.7564   30.9642    0.0038 C   0  0  0  0  0  0  0  0  0  0  0  0
  -87.0603   29.6654    0.0676 N   0  0  0  0  0  0  0  0  0  0  0  0
  -87.6549   31.9102   -0.5230 N   0  0  0  0  0  0  0  0  0  0  0  0
  -88.3201   32.3362    0.2007 H   0  0  0  0  0  0  0  0  0  0  0  0
  -87.7496   32.3378   -1.9030 C   0  0  0  0  0  0  0  0  0  0  0  0
  -89.2173   32.3031   -2.2632 C   0  0  0  0  0  0  0  0  0  0  0  0
  -89.5183   33.1818   -3.4483 C   0  0  0  0  0  0  0  0  0  0  0  0
  -88.5837   32.9816   -4.6067 C   0  0  0  0  0  0  0  0  0  0  0  0
  -87.6349   34.1366   -4.5090 C   0  0  0  0  0  0  0  0  0  0  0  0
  -87.8367   34.5855   -3.0756 C   0  0  0  0  0  0  0  0  0  0  0  0
  -87.1464   33.7026   -2.0953 C   0  0  0  0  0  0  0  0  0  0  0  0
  -89.2790   34.5531   -2.9701 N   0  0  0  0  0  0  0  0  0  0  0  0
  -89.9116   35.5480   -3.7735 C   0  0  0  0  0  0  0  0  0  0  0  0
  -90.2659   26.4254    0.8887 C   0  0  0  0  0  0  0  0  0  0  0  0
  -89.0729   26.9042    0.3743 C   0  0  0  0  0  0  0  0  0  0  0  0
  -87.8879   26.9007    1.0697 C   0  0  0  0  0  0  0  0  0  0  0  0
  -87.9821   26.3636    2.3699 C   0  0  0  0  0  0  0  0  0  0  0  0
  -89.1459   25.8848    2.9016 C   0  0  0  0  0  0  0  0  0  0  0  0
  -90.3100   25.9093    2.1641 C   0  0  0  0  0  0  0  0  0  0  0  0
  -89.1848   25.3221    4.2611 C   0  0  0  0  0  0  0  0  0  0  0  0
  -90.1066   25.6497    5.0352 O   0  0  0  0  0  0  0  0  0  0  0  0
  -88.2083   24.4092    4.7391 N   0  0  0  0  0  0  0  0  0  0  0  0
  -87.4303   24.1149    4.1185 H   0  0  0  0  0  0  0  0  0  0  0  0
  -88.2561   23.8625    6.0757 C   0  0  0  0  0  0  0  0  0  0  0  0
  -86.8779   23.4015    6.5214 C   0  0  0  0  0  0  0  0  0  0  0  0
  -86.8809   22.5277    7.7650 C   0  0  0  0  0  0  0  0  0  0  0  0
  -86.2984   23.8927    7.8149 C   0  0  0  0  0  0  0  0  0  0  0  0
  -91.5285   27.2680   -1.0278 C   0  0  0  0  0  0  0  0  0  0  0  0
  -91.4225   26.4640    0.1196 O   0  0  0  0  0  0  0  0  0  0  0  0
 35 36  1  0  0  0
 36 21  1  0  0  0
 21 22  2  0  0  0
 22 23  1  0  0  0
 23  1  1  0  0  0
  1  3  1  0  0  0
  3  4  2  0  0  0
  4  5  1  0  0  0
  5  6  1  0  0  0
  5  7  2  0  0  0
  7  8  1  0  0  0
  8 10  1  0  0  0
 10 12  1  0  0  0
 12 13  1  0  0  0
 13 14  1  0  0  0
 14 15  1  0  0  0
 15 16  1  0  0  0
 16 17  1  0  0  0
 17 18  1  0  0  0
 17 19  1  0  0  0
 19 20  1  0  0  0
  8  9  2  0  0  0
 23 24  2  0  0  0
 24 25  1  0  0  0
 25 26  2  0  0  0
 25 27  1  0  0  0
 27 28  2  0  0  0
 27 29  1  0  0  0
 29 31  1  0  0  0
 31 32  1  0  0  0
 32 33  1  0  0  0
 33 34  1  0  0  0
 26 21  1  0  0  0
 34 32  1  0  0  0
  9  3  1  0  0  0
 18 12  1  0  0  0
 19 14  1  0  0  0
  1  2  1  0  0  0
 10 11  1  0  0  0
 29 30  1  0  0  0
M  END
> <minimizedAffinity>
-8.91254

> <CNNscore>
0.0940049738

> <CNNaffinity>
6.4878129959

> <CNN_VS>
0.6098867059

> <CNNaffinity_variance>
0.0774124414

$$$$
[H]c1c(OC([H])([H])[H])c([H])c(N([H])c2nc(N([H])[C@@]3([H])C([H])([H])[C@@]4([H])N(C([H])([H])[H])[C@]([H])(C([H])([H])C4([H])[H])C3([H])[H])c([H])c(C([H])([H])[H])c2[H])c([H])c1C(=O)N([H])C([H])([H])C1([H])C([H])([H])C1([H])[H]


 36 40  0  0  0  0  0  0  0  0999 V2000
  -85.7307   32.2997   -0.0246 N   0  0  0  0  0  0  0  0  0  0  0  0
  -85.2504   33.1112    0.4785 H   0  0  0  0  0  0  0  0  0  0  0  0
  -86.4974   32.5228   -1.1779 C   0  0  0  0  0  0  0  0  0  0  0  0
  -86.5562   33.7373   -1.8078 C   0  0  0  0  0  0  0  0  0  0  0  0
  -87.3116   33.9233   -2.9704 C   0  0  0  0  0  0  0  0  0  0  0  0
  -87.3733   35.2408   -3.6518 C   0  0  0  0  0  0  0  0  0  0  0  0
  -87.9968   32.8516   -3.4655 C   0  0  0  0  0  0  0  0  0  0  0  0
  -87.9527   31.6294   -2.8502 C   0  0  0  0  0  0  0  0  0  0  0  0
  -87.2136   31.5132   -1.7442 N   0  0  0  0  0  0  0  0  0  0  0  0
  -88.6895   30.5472   -3.3658 N   0  0  0  0  0  0  0  0  0  0  0  0
  -88.5106   30.3472   -4.4030 H   0  0  0  0  0  0  0  0  0  0  0  0
  -89.6282   29.7169   -2.6409 C   0  0  0  0  0  0  0  0  0  0  0  0
  -90.9548   29.8458   -3.3541 C   0  0  0  0  0  0  0  0  0  0  0  0
  -91.8645   28.6860   -3.0471 C   0  0  0  0  0  0  0  0  0  0  0  0
  -91.9682   28.3653   -1.5837 C   0  0  0  0  0  0  0  0  0  0  0  0
  -91.0708   27.1787   -1.4094 C   0  0  0  0  0  0  0  0  0  0  0  0
  -90.2150   27.2490   -2.6582 C   0  0  0  0  0  0  0  0  0  0  0  0
  -89.1547   28.2906   -2.5692 C   0  0  0  0  0  0  0  0  0  0  0  0
  -91.2127   27.5220   -3.6692 N   0  0  0  0  0  0  0  0  0  0  0  0
  -92.1000   26.4242   -3.8768 C   0  0  0  0  0  0  0  0  0  0  0  0
  -84.1948   29.2991    1.6142 C   0  0  0  0  0  0  0  0  0  0  0  0
  -84.3357   30.5476    1.0325 C   0  0  0  0  0  0  0  0  0  0  0  0
  -85.5287   31.0357    0.5569 C   0  0  0  0  0  0  0  0  0  0  0  0
  -86.6167   30.1520    0.7087 C   0  0  0  0  0  0  0  0  0  0  0  0
  -86.5053   28.9154    1.2787 C   0  0  0  0  0  0  0  0  0  0  0  0
  -85.2861   28.4698    1.7419 C   0  0  0  0  0  0  0  0  0  0  0  0
  -87.6779   28.0378    1.4244 C   0  0  0  0  0  0  0  0  0  0  0  0
  -88.7201   28.2950    0.7888 O   0  0  0  0  0  0  0  0  0  0  0  0
  -87.6775   26.8945    2.2660 N   0  0  0  0  0  0  0  0  0  0  0  0
  -86.8251   26.6521    2.8059 H   0  0  0  0  0  0  0  0  0  0  0  0
  -88.8343   26.0394    2.4014 C   0  0  0  0  0  0  0  0  0  0  0  0
  -89.1913   25.8397    3.8655 C   0  0  0  0  0  0  0  0  0  0  0  0
  -90.6465   25.4774    4.1121 C   0  0  0  0  0  0  0  0  0  0  0  0
  -90.1215   26.7944    4.5535 C   0  0  0  0  0  0  0  0  0  0  0  0
  -82.7756   27.6502    2.7297 C   0  0  0  0  0  0  0  0  0  0  0  0
  -82.9517   28.8790    2.0716 O   0  0  0  0  0  0  0  0  0  0  0  0
 35 36  1  0  0  0
 36 21  1  0  0  0
 21 22  2  0  0  0
 22 23  1  0  0  0
 23  1  1  0  0  0
  1  3  1  0  0  0
  3  4  2  0  0  0
  4  5  1  0  0  0
  5  6  1  0  0  0
  5  7  2  0  0  0
  7  8  1  0  0  0
  8 10  1  0  0  0
 10 12  1  0  0  0
 12 13  1  0  0  0
 13 14  1  0  0  0
 14 15  1  0  0  0
 15 16  1  0  0  0
 16 17  1  0  0  0
 17 18  1  0  0  0
 17 19  1  0  0  0
 19 20  1  0  0  0
  8  9  2  0  0  0
 23 24  2  0  0  0
 24 25  1  0  0  0
 25 26  2  0  0  0
 25 27  1  0  0  0
 27 28  2  0  0  0
 27 29  1  0  0  0
 29 31  1  0  0  0
 31 32  1  0  0  0
 32 33  1  0  0  0
 33 34  1  0  0  0
 26 21  1  0  0  0
 34 32  1  0  0  0
  9  3  1  0  0  0
 18 12  1  0  0  0
 19 14  1  0  0  0
  1  2  1  0  0  0
 10 11  1  0  0  0
 29 30  1  0  0  0
M  END
> <minimizedAffinity>
-8.29681

> <CNNscore>
0.0853227004

> <CNNaffinity>
6.6463651657

> <CNN_VS>
0.5670858026

> <CNNaffinity_variance>
0.1025775522

$$$$
[H]c1c(OC([H])([H])[H])c([H])c(N([H])c2nc(N([H])[C@@]3([H])C([H])([H])[C@@]4([H])N(C([H])([H])[H])[C@]([H])(C([H])([H])C4([H])[H])C3([H])[H])c([H])c(C([H])([H])[H])c2[H])c([H])c1C(=O)N([H])C([H])([H])C1([H])C([H])([H])C1([H])[H]


 36 40  0  0  0  0  0  0  0  0999 V2000
  -86.6724   27.9822   -0.0135 N   0  0  0  0  0  0  0  0  0  0  0  0
  -86.2161   27.2485   -0.6427 H   0  0  0  0  0  0  0  0  0  0  0  0
  -86.1236   29.2678    0.1052 C   0  0  0  0  0  0  0  0  0  0  0  0
  -84.8871   29.5010    0.6455 C   0  0  0  0  0  0  0  0  0  0  0  0
  -84.3565   30.7926    0.7291 C   0  0  0  0  0  0  0  0  0  0  0  0
  -83.0154   31.0429    1.3148 C   0  0  0  0  0  0  0  0  0  0  0  0
  -85.1115   31.8257    0.2539 C   0  0  0  0  0  0  0  0  0  0  0  0
  -86.3506   31.6143   -0.2886 C   0  0  0  0  0  0  0  0  0  0  0  0
  -86.8032   30.3591   -0.3420 N   0  0  0  0  0  0  0  0  0  0  0  0
  -87.1202   32.6993   -0.7471 N   0  0  0  0  0  0  0  0  0  0  0  0
  -87.4627   33.3547    0.0280 H   0  0  0  0  0  0  0  0  0  0  0  0
  -87.4711   32.9910   -2.1211 C   0  0  0  0  0  0  0  0  0  0  0  0
  -88.9810   33.0350   -2.1783 C   0  0  0  0  0  0  0  0  0  0  0  0
  -89.4684   33.8099   -3.3737 C   0  0  0  0  0  0  0  0  0  0  0  0
  -88.8035   33.4210   -4.6628 C   0  0  0  0  0  0  0  0  0  0  0  0
  -87.7914   34.5021   -4.8877 C   0  0  0  0  0  0  0  0  0  0  0  0
  -87.6700   35.1083   -3.5040 C   0  0  0  0  0  0  0  0  0  0  0  0
  -86.8444   34.2780   -2.5842 C   0  0  0  0  0  0  0  0  0  0  0  0
  -89.0596   35.1996   -3.1130 N   0  0  0  0  0  0  0  0  0  0  0  0
  -89.7865   36.1545   -3.8848 C   0  0  0  0  0  0  0  0  0  0  0  0
  -89.2643   27.2947    2.6051 C   0  0  0  0  0  0  0  0  0  0  0  0
  -88.0967   27.7216    1.9955 C   0  0  0  0  0  0  0  0  0  0  0  0
  -87.8304   27.5531    0.6582 C   0  0  0  0  0  0  0  0  0  0  0  0
  -88.8548   26.9003   -0.0575 C   0  0  0  0  0  0  0  0  0  0  0  0
  -90.0159   26.4692    0.5190 C   0  0  0  0  0  0  0  0  0  0  0  0
  -90.2376   26.6617    1.8656 C   0  0  0  0  0  0  0  0  0  0  0  0
  -91.0589   25.8044   -0.2789 C   0  0  0  0  0  0  0  0  0  0  0  0
  -92.0424   25.2970    0.2968 O   0  0  0  0  0  0  0  0  0  0  0  0
  -90.9973   25.7136   -1.6943 N   0  0  0  0  0  0  0  0  0  0  0  0
  -90.1932   26.1280   -2.2029 H   0  0  0  0  0  0  0  0  0  0  0  0
  -92.0270   25.0589   -2.4680 C   0  0  0  0  0  0  0  0  0  0  0  0
  -91.7048   23.5859   -2.6610 C   0  0  0  0  0  0  0  0  0  0  0  0
  -92.7922   22.7937   -3.3680 C   0  0  0  0  0  0  0  0  0  0  0  0
  -92.4958   22.5379   -1.9356 C   0  0  0  0  0  0  0  0  0  0  0  0
  -90.4633   26.8384    4.6864 C   0  0  0  0  0  0  0  0  0  0  0  0
  -89.4579   27.5041    3.9651 O   0  0  0  0  0  0  0  0  0  0  0  0
 35 36  1  0  0  0
 36 21  1  0  0  0
 21 22  2  0  0  0
 22 23  1  0  0  0
 23  1  1  0  0  0
  1  3  1  0  0  0
  3  4  2  0  0  0
  4  5  1  0  0  0
  5  6  1  0  0  0
  5  7  2  0  0  0
  7  8  1  0  0  0
  8 10  1  0  0  0
 10 12  1  0  0  0
 12 13  1  0  0  0
 13 14  1  0  0  0
 14 15  1  0  0  0
 15 16  1  0  0  0
 16 17  1  0  0  0
 17 18  1  0  0  0
 17 19  1  0  0  0
 19 20  1  0  0  0
  8  9  2  0  0  0
 23 24  2  0  0  0
 24 25  1  0  0  0
 25 26  2  0  0  0
 25 27  1  0  0  0
 27 28  2  0  0  0
 27 29  1  0  0  0
 29 31  1  0  0  0
 31 32  1  0  0  0
 32 33  1  0  0  0
 33 34  1  0  0  0
 26 21  1  0  0  0
 34 32  1  0  0  0
  9  3  1  0  0  0
 18 12  1  0  0  0
 19 14  1  0  0  0
  1  2  1  0  0  0
 10 11  1  0  0  0
 29 30  1  0  0  0
M  END
> <minimizedAffinity>
-8.18903

> <CNNscore>
0.0789025426

> <CNNaffinity>
6.1389513016

> <CNN_VS>
0.4843788743

> <CNNaffinity_variance>
0.3509821594

$$$$
[H]c1c(OC([H])([H])[H])c([H])c(N([H])c2nc(N([H])[C@@]3([H])C([H])([H])[C@@]4([H])N(C([H])([H])[H])[C@]([H])(C([H])([H])C4([H])[H])C3([H])[H])c([H])c(C([H])([H])[H])c2[H])c([H])c1C(=O)N([H])C([H])([H])C1([H])C([H])([H])C1([H])[H]


 36 40  0  0  0  0  0  0  0  0999 V2000
  -87.2967   33.2480   -0.8349 N   0  0  0  0  0  0  0  0  0  0  0  0
  -87.1928   34.0661   -0.1551 H   0  0  0  0  0  0  0  0  0  0  0  0
  -88.0176   33.3940   -2.0294 C   0  0  0  0  0  0  0  0  0  0  0  0
  -87.5997   34.1979   -3.0561 C   0  0  0  0  0  0  0  0  0  0  0  0
  -88.3286   34.3051   -4.2453 C   0  0  0  0  0  0  0  0  0  0  0  0
  -87.8731   35.1770   -5.3573 C   0  0  0  0  0  0  0  0  0  0  0  0
  -89.4799   33.5806   -4.3566 C   0  0  0  0  0  0  0  0  0  0  0  0
  -89.9161   32.7721   -3.3415 C   0  0  0  0  0  0  0  0  0  0  0  0
  -89.1772   32.7102   -2.2310 N   0  0  0  0  0  0  0  0  0  0  0  0
  -91.1204   32.0560   -3.4708 N   0  0  0  0  0  0  0  0  0  0  0  0
  -91.9963   32.6716   -3.5116 H   0  0  0  0  0  0  0  0  0  0  0  0
  -91.2669   30.6179   -3.5510 C   0  0  0  0  0  0  0  0  0  0  0  0
  -91.6481   30.1476   -2.1658 C   0  0  0  0  0  0  0  0  0  0  0  0
  -92.3180   28.7997   -2.2027 C   0  0  0  0  0  0  0  0  0  0  0  0
  -91.5899   27.7812   -3.0322 C   0  0  0  0  0  0  0  0  0  0  0  0
  -92.3600   27.7441   -4.3165 C   0  0  0  0  0  0  0  0  0  0  0  0
  -93.1304   29.0478   -4.2559 C   0  0  0  0  0  0  0  0  0  0  0  0
  -92.2862   30.2289   -4.5868 C   0  0  0  0  0  0  0  0  0  0  0  0
  -93.5994   29.0353   -2.8877 N   0  0  0  0  0  0  0  0  0  0  0  0
  -94.5635   28.0116   -2.6462 C   0  0  0  0  0  0  0  0  0  0  0  0
  -84.7600   30.7100    0.2478 C   0  0  0  0  0  0  0  0  0  0  0  0
  -85.3282   31.9041   -0.1626 C   0  0  0  0  0  0  0  0  0  0  0  0
  -86.6664   32.0571   -0.4337 C   0  0  0  0  0  0  0  0  0  0  0  0
  -87.4294   30.8843   -0.2595 C   0  0  0  0  0  0  0  0  0  0  0  0
  -86.8943   29.6939    0.1443 C   0  0  0  0  0  0  0  0  0  0  0  0
  -85.5449   29.5901    0.4050 C   0  0  0  0  0  0  0  0  0  0  0  0
  -87.7402   28.5028    0.3232 C   0  0  0  0  0  0  0  0  0  0  0  0
  -88.8263   28.4240   -0.2854 O   0  0  0  0  0  0  0  0  0  0  0  0
  -87.3714   27.4228    1.1676 N   0  0  0  0  0  0  0  0  0  0  0  0
  -86.4728   27.4570    1.6855 H   0  0  0  0  0  0  0  0  0  0  0  0
  -88.2094   26.2577    1.3357 C   0  0  0  0  0  0  0  0  0  0  0  0
  -88.7264   26.1643    2.7622 C   0  0  0  0  0  0  0  0  0  0  0  0
  -90.2402   26.2190    2.8851 C   0  0  0  0  0  0  0  0  0  0  0  0
  -89.4102   27.3390    3.3966 C   0  0  0  0  0  0  0  0  0  0  0  0
  -82.5796   31.7813    0.5218 C   0  0  0  0  0  0  0  0  0  0  0  0
  -83.3960   30.6379    0.5029 O   0  0  0  0  0  0  0  0  0  0  0  0
 35 36  1  0  0  0
 36 21  1  0  0  0
 21 22  2  0  0  0
 22 23  1  0  0  0
 23  1  1  0  0  0
  1  3  1  0  0  0
  3  4  2  0  0  0
  4  5  1  0  0  0
  5  6  1  0  0  0
  5  7  2  0  0  0
  7  8  1  0  0  0
  8 10  1  0  0  0
 10 12  1  0  0  0
 12 13  1  0  0  0
 13 14  1  0  0  0
 14 15  1  0  0  0
 15 16  1  0  0  0
 16 17  1  0  0  0
 17 18  1  0  0  0
 17 19  1  0  0  0
 19 20  1  0  0  0
  8  9  2  0  0  0
 23 24  2  0  0  0
 24 25  1  0  0  0
 25 26  2  0  0  0
 25 27  1  0  0  0
 27 28  2  0  0  0
 27 29  1  0  0  0
 29 31  1  0  0  0
 31 32  1  0  0  0
 32 33  1  0  0  0
 33 34  1  0  0  0
 26 21  1  0  0  0
 34 32  1  0  0  0
  9  3  1  0  0  0
 18 12  1  0  0  0
 19 14  1  0  0  0
  1  2  1  0  0  0
 10 11  1  0  0  0
 29 30  1  0  0  0
M  END
> <minimizedAffinity>
-7.46295

> <CNNscore>
0.0787310004

> <CNNaffinity>
6.3640985489

> <CNN_VS>
0.5010518432

> <CNNaffinity_variance>
0.0958527476

$$$$
[H]/C(=C(/[H])c1c([H])c([H])c2c(c1[H])/C(=N/N([H])C(=O)C([H])([H])[H])C(=O)N2[H])c1nc2c([H])c([H])c(N([H])[H])c([H])c2c([H])c1[H]


 32 35  0  0  0  0  0  0  0  0999 V2000
  -86.5897   28.3993    1.4267 N   0  0  0  0  0  0  0  0  0  0  0  0
  -85.3919   28.8946    1.4801 C   0  0  0  0  0  0  0  0  0  0  0  0
  -84.2502   28.3012    2.1332 C   0  0  0  0  0  0  0  0  0  0  0  0
  -84.2623   27.2061    2.7488 O   0  0  0  0  0  0  0  0  0  0  0  0
  -83.1658   29.2011    1.9262 N   0  0  0  0  0  0  0  0  0  0  0  0
  -83.5750   30.3246    1.1773 C   0  0  0  0  0  0  0  0  0  0  0  0
  -82.8982   31.4397    0.7354 C   0  0  0  0  0  0  0  0  0  0  0  0
  -83.5842   32.4049   -0.0011 C   0  0  0  0  0  0  0  0  0  0  0  0
  -84.9182   32.2785   -0.3007 C   0  0  0  0  0  0  0  0  0  0  0  0
  -85.5464   31.1363    0.1700 C   0  0  0  0  0  0  0  0  0  0  0  0
  -84.9117   30.1581    0.8995 C   0  0  0  0  0  0  0  0  0  0  0  0
  -82.2123   29.0364    2.2847 H   0  0  0  0  0  0  0  0  0  0  0  0
  -88.6535   25.6245    3.0313 C   0  0  0  0  0  0  0  0  0  0  0  0
  -88.2612   26.9068    2.3949 C   0  0  0  0  0  0  0  0  0  0  0  0
  -89.1761   27.7549    2.1938 O   0  0  0  0  0  0  0  0  0  0  0  0
  -86.9194   27.1819    2.0230 N   0  0  0  0  0  0  0  0  0  0  0  0
  -86.2062   26.4483    2.2115 H   0  0  0  0  0  0  0  0  0  0  0  0
  -85.6988   33.2445   -1.0641 C   0  0  0  0  0  0  0  0  0  0  0  0
  -86.7371   32.9676   -1.8113 C   0  0  0  0  0  0  0  0  0  0  0  0
  -87.5212   33.9292   -2.5766 C   0  0  0  0  0  0  0  0  0  0  0  0
  -88.8774   34.0127   -2.5540 C   0  0  0  0  0  0  0  0  0  0  0  0
  -89.5455   34.9690   -3.3230 C   0  0  0  0  0  0  0  0  0  0  0  0
  -88.8728   35.8454   -4.1167 C   0  0  0  0  0  0  0  0  0  0  0  0
  -89.4528   36.8062   -4.8956 C   0  0  0  0  0  0  0  0  0  0  0  0
  -88.7071   37.6610   -5.6759 C   0  0  0  0  0  0  0  0  0  0  0  0
  -89.3683   38.6464   -6.4701 N   0  0  0  0  0  0  0  0  0  0  0  0
  -87.3379   37.5631   -5.6873 C   0  0  0  0  0  0  0  0  0  0  0  0
  -86.7419   36.5996   -4.9071 C   0  0  0  0  0  0  0  0  0  0  0  0
  -87.4887   35.7386   -4.1214 C   0  0  0  0  0  0  0  0  0  0  0  0
  -86.8779   34.8244   -3.3844 N   0  0  0  0  0  0  0  0  0  0  0  0
  -88.8712   39.5059   -6.7460 H   0  0  0  0  0  0  0  0  0  0  0  0
  -90.3502   38.5243   -6.7845 H   0  0  0  0  0  0  0  0  0  0  0  0
 13 14  1  0  0  0
 14 15  2  0  0  0
 14 16  1  0  0  0
 16  1  1  0  0  0
  1  2  2  0  0  0
  2  3  1  0  0  0
  3  4  2  0  0  0
  3  5  1  0  0  0
  5  6  1  0  0  0
  6  7  2  0  0  0
  7  8  1  0  0  0
  8  9  2  0  0  0
  9 18  1  0  0  0
 18 19  2  0  0  0
 19 20  1  0  0  0
 20 21  2  0  0  0
 21 22  1  0  0  0
 22 23  2  0  0  0
 23 24  1  0  0  0
 24 25  2  0  0  0
 25 26  1  0  0  0
 25 27  1  0  0  0
 27 28  2  0  0  0
 28 29  1  0  0  0
 29 30  2  0  0  0
  9 10  1  0  0  0
 10 11  2  0  0  0
 11  2  1  0  0  0
 11  6  1  0  0  0
 30 20  1  0  0  0
 29 23  1  0  0  0
 16 17  1  0  0  0
  5 12  1  0  0  0
 26 31  1  0  0  0
 26 32  1  0  0  0
M  END
> <minimizedAffinity>
-9.75126

> <CNNscore>
0.7476345301

> <CNNaffinity>
6.8086442947

> <CNN_VS>
5.0903778076

> <CNNaffinity_variance>
0.1312782615

$$$$
[H]/C(=C(/[H])c1c([H])c([H])c2c(c1[H])/C(=N/N([H])C(=O)C([H])([H])[H])C(=O)N2[H])c1nc2c([H])c([H])c(N([H])[H])c([H])c2c([H])c1[H]


 32 35  0  0  0  0  0  0  0  0999 V2000
  -86.4690   28.7072    1.3936 N   0  0  0  0  0  0  0  0  0  0  0  0
  -85.2814   29.2265    1.4492 C   0  0  0  0  0  0  0  0  0  0  0  0
  -84.1521   28.7005    2.1775 C   0  0  0  0  0  0  0  0  0  0  0  0
  -84.1668   27.6509    2.8678 O   0  0  0  0  0  0  0  0  0  0  0  0
  -83.0759   29.6030    1.9416 N   0  0  0  0  0  0  0  0  0  0  0  0
  -83.4784   30.6642    1.1034 C   0  0  0  0  0  0  0  0  0  0  0  0
  -82.8053   31.7577    0.6056 C   0  0  0  0  0  0  0  0  0  0  0  0
  -83.4822   32.6569   -0.2177 C   0  0  0  0  0  0  0  0  0  0  0  0
  -84.8037   32.4861   -0.5490 C   0  0  0  0  0  0  0  0  0  0  0  0
  -85.4287   31.3684   -0.0191 C   0  0  0  0  0  0  0  0  0  0  0  0
  -84.8026   30.4548    0.7966 C   0  0  0  0  0  0  0  0  0  0  0  0
  -82.1320   29.4808    2.3402 H   0  0  0  0  0  0  0  0  0  0  0  0
  -88.5509   25.9172    2.9473 C   0  0  0  0  0  0  0  0  0  0  0  0
  -88.1582   27.1622    2.2411 C   0  0  0  0  0  0  0  0  0  0  0  0
  -89.0892   27.8929    1.7985 O   0  0  0  0  0  0  0  0  0  0  0  0
  -86.7986   27.5286    2.0633 N   0  0  0  0  0  0  0  0  0  0  0  0
  -86.0724   26.8904    2.4477 H   0  0  0  0  0  0  0  0  0  0  0  0
  -85.5744   33.3825   -1.4021 C   0  0  0  0  0  0  0  0  0  0  0  0
  -86.6634   33.0663   -2.0556 C   0  0  0  0  0  0  0  0  0  0  0  0
  -87.4379   33.9582   -2.9099 C   0  0  0  0  0  0  0  0  0  0  0  0
  -87.4044   35.3151   -2.8422 C   0  0  0  0  0  0  0  0  0  0  0  0
  -88.1836   36.0911   -3.7041 C   0  0  0  0  0  0  0  0  0  0  0  0
  -88.9981   35.5261   -4.6356 C   0  0  0  0  0  0  0  0  0  0  0  0
  -89.7880   36.2152   -5.5117 C   0  0  0  0  0  0  0  0  0  0  0  0
  -90.5895   35.5750   -6.4300 C   0  0  0  0  0  0  0  0  0  0  0  0
  -91.3944   36.3478   -7.3212 N   0  0  0  0  0  0  0  0  0  0  0  0
  -90.6116   34.2036   -6.4852 C   0  0  0  0  0  0  0  0  0  0  0  0
  -89.8206   33.4984   -5.6082 C   0  0  0  0  0  0  0  0  0  0  0  0
  -89.0136   34.1388   -4.6836 C   0  0  0  0  0  0  0  0  0  0  0  0
  -88.2666   33.4246   -3.8566 N   0  0  0  0  0  0  0  0  0  0  0  0
  -91.6894   35.9515   -8.2256 H   0  0  0  0  0  0  0  0  0  0  0  0
  -91.6977   37.3121   -7.0848 H   0  0  0  0  0  0  0  0  0  0  0  0
 13 14  1  0  0  0
 14 15  2  0  0  0
 14 16  1  0  0  0
 16  1  1  0  0  0
  1  2  2  0  0  0
  2  3  1  0  0  0
  3  4  2  0  0  0
  3  5  1  0  0  0
  5  6  1  0  0  0
  6  7  2  0  0  0
  7  8  1  0  0  0
  8  9  2  0  0  0
  9 18  1  0  0  0
 18 19  2  0  0  0
 19 20  1  0  0  0
 20 21  2  0  0  0
 21 22  1  0  0  0
 22 23  2  0  0  0
 23 24  1  0  0  0
 24 25  2  0  0  0
 25 26  1  0  0  0
 25 27  1  0  0  0
 27 28  2  0  0  0
 28 29  1  0  0  0
 29 30  2  0  0  0
  9 10  1  0  0  0
 10 11  2  0  0  0
 11  2  1  0  0  0
 11  6  1  0  0  0
 30 20  1  0  0  0
 29 23  1  0  0  0
 16 17  1  0  0  0
  5 12  1  0  0  0
 26 31  1  0  0  0
 26 32  1  0  0  0
M  END
> <minimizedAffinity>
-9.39177

> <CNNscore>
0.4784716070

> <CNNaffinity>
6.5835165977

> <CNN_VS>
3.1500258446

> <CNNaffinity_variance>
0.1142203435

$$$$
[H]/C(=C(/[H])c1c([H])c([H])c2c(c1[H])/C(=N/N([H])C(=O)C([H])([H])[H])C(=O)N2[H])c1nc2c([H])c([H])c(N([H])[H])c([H])c2c([H])c1[H]


 32 35  0  0  0  0  0  0  0  0999 V2000
  -85.9735   32.3061   -0.7244 N   0  0  0  0  0  0  0  0  0  0  0  0
  -84.8997   31.9019   -0.1189 C   0  0  0  0  0  0  0  0  0  0  0  0
  -83.6350   32.5948   -0.0684 C   0  0  0  0  0  0  0  0  0  0  0  0
  -83.3990   33.7021   -0.6133 O   0  0  0  0  0  0  0  0  0  0  0  0
  -82.7652   31.7721    0.7029 N   0  0  0  0  0  0  0  0  0  0  0  0
  -83.4246   30.6020    1.1350 C   0  0  0  0  0  0  0  0  0  0  0  0
  -83.0070   29.5285    1.8899 C   0  0  0  0  0  0  0  0  0  0  0  0
  -83.9046   28.4963    2.1604 C   0  0  0  0  0  0  0  0  0  0  0  0
  -85.1967   28.5161    1.6962 C   0  0  0  0  0  0  0  0  0  0  0  0
  -85.5601   29.6210    0.9426 C   0  0  0  0  0  0  0  0  0  0  0  0
  -84.7103   30.6623    0.6502 C   0  0  0  0  0  0  0  0  0  0  0  0
  -81.7839   32.0160    0.9086 H   0  0  0  0  0  0  0  0  0  0  0  0
  -87.1856   35.0441   -3.0838 C   0  0  0  0  0  0  0  0  0  0  0  0
  -87.0944   33.7749   -2.3196 C   0  0  0  0  0  0  0  0  0  0  0  0
  -88.0150   32.9275   -2.4961 O   0  0  0  0  0  0  0  0  0  0  0  0
  -86.0243   33.5112   -1.4253 N   0  0  0  0  0  0  0  0  0  0  0  0
  -85.2933   34.2437   -1.3179 H   0  0  0  0  0  0  0  0  0  0  0  0
  -86.1883   27.4753    1.9386 C   0  0  0  0  0  0  0  0  0  0  0  0
  -87.4605   27.5480    1.6398 C   0  0  0  0  0  0  0  0  0  0  0  0
  -88.4563   26.5108    1.8800 C   0  0  0  0  0  0  0  0  0  0  0  0
  -88.9651   26.1959    3.1002 C   0  0  0  0  0  0  0  0  0  0  0  0
  -89.9188   25.1837    3.2349 C   0  0  0  0  0  0  0  0  0  0  0  0
  -90.3716   24.4804    2.1621 C   0  0  0  0  0  0  0  0  0  0  0  0
  -91.3000   23.4795    2.2126 C   0  0  0  0  0  0  0  0  0  0  0  0
  -91.7121   22.8092    1.0828 C   0  0  0  0  0  0  0  0  0  0  0  0
  -92.6860   21.7710    1.1964 N   0  0  0  0  0  0  0  0  0  0  0  0
  -91.1880   23.1398   -0.1421 C   0  0  0  0  0  0  0  0  0  0  0  0
  -90.2524   24.1460   -0.2061 C   0  0  0  0  0  0  0  0  0  0  0  0
  -89.8358   24.8220    0.9279 C   0  0  0  0  0  0  0  0  0  0  0  0
  -88.9331   25.7847    0.8249 N   0  0  0  0  0  0  0  0  0  0  0  0
  -93.2765   21.5263    0.3881 H   0  0  0  0  0  0  0  0  0  0  0  0
  -92.8218   21.2453    2.0812 H   0  0  0  0  0  0  0  0  0  0  0  0
 13 14  1  0  0  0
 14 15  2  0  0  0
 14 16  1  0  0  0
 16  1  1  0  0  0
  1  2  2  0  0  0
  2  3  1  0  0  0
  3  4  2  0  0  0
  3  5  1  0  0  0
  5  6  1  0  0  0
  6  7  2  0  0  0
  7  8  1  0  0  0
  8  9  2  0  0  0
  9 18  1  0  0  0
 18 19  2  0  0  0
 19 20  1  0  0  0
 20 21  2  0  0  0
 21 22  1  0  0  0
 22 23  2  0  0  0
 23 24  1  0  0  0
 24 25  2  0  0  0
 25 26  1  0  0  0
 25 27  1  0  0  0
 27 28  2  0  0  0
 28 29  1  0  0  0
 29 30  2  0  0  0
  9 10  1  0  0  0
 10 11  2  0  0  0
 11  2  1  0  0  0
 11  6  1  0  0  0
 30 20  1  0  0  0
 29 23  1  0  0  0
 16 17  1  0  0  0
  5 12  1  0  0  0
 26 31  1  0  0  0
 26 32  1  0  0  0
M  END
> <minimizedAffinity>
-10.18790

> <CNNscore>
0.3900409341

> <CNNaffinity>
6.5865097046

> <CNN_VS>
2.5690083504

> <CNNaffinity_variance>
0.2327731103

$$$$
[H]/C(=C(/[H])c1c([H])c([H])c2c(c1[H])/C(=N/N([H])C(=O)C([H])([H])[H])C(=O)N2[H])c1nc2c([H])c([H])c(N([H])[H])c([H])c2c([H])c1[H]


 32 35  0  0  0  0  0  0  0  0999 V2000
  -85.2392   30.0213    0.6929 N   0  0  0  0  0  0  0  0  0  0  0  0
  -85.2474   31.2084    0.1697 C   0  0  0  0  0  0  0  0  0  0  0  0
  -84.1728   32.1703    0.2166 C   0  0  0  0  0  0  0  0  0  0  0  0
  -83.0652   31.9848    0.7800 O   0  0  0  0  0  0  0  0  0  0  0  0
  -84.6388   33.3168   -0.4882 N   0  0  0  0  0  0  0  0  0  0  0  0
  -85.9494   33.1171   -0.9714 C   0  0  0  0  0  0  0  0  0  0  0  0
  -86.8024   33.9207   -1.6946 C   0  0  0  0  0  0  0  0  0  0  0  0
  -88.0664   33.4397   -2.0343 C   0  0  0  0  0  0  0  0  0  0  0  0
  -88.4892   32.1854   -1.6693 C   0  0  0  0  0  0  0  0  0  0  0  0
  -87.5886   31.4224   -0.9432 C   0  0  0  0  0  0  0  0  0  0  0  0
  -86.3325   31.8538   -0.5853 C   0  0  0  0  0  0  0  0  0  0  0  0
  -84.0775   34.1728   -0.6185 H   0  0  0  0  0  0  0  0  0  0  0  0
  -83.0718   27.7047    2.8068 C   0  0  0  0  0  0  0  0  0  0  0  0
  -84.2192   28.2706    2.0544 C   0  0  0  0  0  0  0  0  0  0  0  0
  -85.2831   27.5895    2.0260 O   0  0  0  0  0  0  0  0  0  0  0  0
  -84.1387   29.5224    1.3903 N   0  0  0  0  0  0  0  0  0  0  0  0
  -83.2388   30.0414    1.4459 H   0  0  0  0  0  0  0  0  0  0  0  0
  -89.7932   31.6169   -1.9883 C   0  0  0  0  0  0  0  0  0  0  0  0
  -90.0048   30.5612   -2.7323 C   0  0  0  0  0  0  0  0  0  0  0  0
  -91.3061   29.9885   -3.0546 C   0  0  0  0  0  0  0  0  0  0  0  0
  -92.4974   30.6034   -2.8321 C   0  0  0  0  0  0  0  0  0  0  0  0
  -93.6980   29.9760   -3.1743 C   0  0  0  0  0  0  0  0  0  0  0  0
  -93.7228   28.7381   -3.7377 C   0  0  0  0  0  0  0  0  0  0  0  0
  -94.8527   28.0607   -4.0993 C   0  0  0  0  0  0  0  0  0  0  0  0
  -94.8017   26.8072   -4.6663 C   0  0  0  0  0  0  0  0  0  0  0  0
  -96.0162   26.1468   -5.0242 N   0  0  0  0  0  0  0  0  0  0  0  0
  -93.5900   26.2001   -4.8841 C   0  0  0  0  0  0  0  0  0  0  0  0
  -92.4449   26.8719   -4.5243 C   0  0  0  0  0  0  0  0  0  0  0  0
  -92.4925   28.1325   -3.9541 C   0  0  0  0  0  0  0  0  0  0  0  0
  -91.3680   28.7465   -3.6216 N   0  0  0  0  0  0  0  0  0  0  0  0
  -96.0145   25.4268   -5.7615 H   0  0  0  0  0  0  0  0  0  0  0  0
  -96.9166   26.3714   -4.5588 H   0  0  0  0  0  0  0  0  0  0  0  0
 13 14  1  0  0  0
 14 15  2  0  0  0
 14 16  1  0  0  0
 16  1  1  0  0  0
  1  2  2  0  0  0
  2  3  1  0  0  0
  3  4  2  0  0  0
  3  5  1  0  0  0
  5  6  1  0  0  0
  6  7  2  0  0  0
  7  8  1  0  0  0
  8  9  2  0  0  0
  9 18  1  0  0  0
 18 19  2  0  0  0
 19 20  1  0  0  0
 20 21  2  0  0  0
 21 22  1  0  0  0
 22 23  2  0  0  0
 23 24  1  0  0  0
 24 25  2  0  0  0
 25 26  1  0  0  0
 25 27  1  0  0  0
 27 28  2  0  0  0
 28 29  1  0  0  0
 29 30  2  0  0  0
  9 10  1  0  0  0
 10 11  2  0  0  0
 11  2  1  0  0  0
 11  6  1  0  0  0
 30 20  1  0  0  0
 29 23  1  0  0  0
 16 17  1  0  0  0
  5 12  1  0  0  0
 26 31  1  0  0  0
 26 32  1  0  0  0
M  END
> <minimizedAffinity>
-8.15397

> <CNNscore>
0.2323310226

> <CNNaffinity>
6.0947346687

> <CNN_VS>
1.4159959555

> <CNNaffinity_variance>
0.2679784298

$$$$
[H]/C(=C(/[H])c1c([H])c([H])c2c(c1[H])/C(=N/N([H])C(=O)C([H])([H])[H])C(=O)N2[H])c1nc2c([H])c([H])c(N([H])[H])c([H])c2c([H])c1[H]


 32 35  0  0  0  0  0  0  0  0999 V2000
  -86.2364   30.8319   -0.2935 N   0  0  0  0  0  0  0  0  0  0  0  0
  -86.8488   31.7813   -0.9311 C   0  0  0  0  0  0  0  0  0  0  0  0
  -86.4251   33.1573   -1.0277 C   0  0  0  0  0  0  0  0  0  0  0  0
  -85.3882   33.6297   -0.4983 O   0  0  0  0  0  0  0  0  0  0  0  0
  -87.4062   33.8172   -1.8216 N   0  0  0  0  0  0  0  0  0  0  0  0
  -88.4193   32.9214   -2.2240 C   0  0  0  0  0  0  0  0  0  0  0  0
  -89.5549   33.0886   -2.9849 C   0  0  0  0  0  0  0  0  0  0  0  0
  -90.3850   31.9928   -3.2189 C   0  0  0  0  0  0  0  0  0  0  0  0
  -90.1051   30.7476   -2.7127 C   0  0  0  0  0  0  0  0  0  0  0  0
  -88.9497   30.6397   -1.9550 C   0  0  0  0  0  0  0  0  0  0  0  0
  -88.1011   31.6912   -1.6977 C   0  0  0  0  0  0  0  0  0  0  0  0
  -87.3652   34.8201   -2.0610 H   0  0  0  0  0  0  0  0  0  0  0  0
  -83.1136   30.1561    1.7860 C   0  0  0  0  0  0  0  0  0  0  0  0
  -84.3817   29.9681    1.0380 C   0  0  0  0  0  0  0  0  0  0  0  0
  -84.8545   28.7973    0.9885 O   0  0  0  0  0  0  0  0  0  0  0  0
  -85.0457   31.0485    0.4006 N   0  0  0  0  0  0  0  0  0  0  0  0
  -84.6125   31.9916    0.4729 H   0  0  0  0  0  0  0  0  0  0  0  0
  -90.9245   29.5590   -2.9155 C   0  0  0  0  0  0  0  0  0  0  0  0
  -90.4876   28.3256   -2.9422 C   0  0  0  0  0  0  0  0  0  0  0  0
  -91.3021   27.1336   -3.1447 C   0  0  0  0  0  0  0  0  0  0  0  0
  -92.2641   27.0076   -4.0964 C   0  0  0  0  0  0  0  0  0  0  0  0
  -92.9969   25.8241   -4.2165 C   0  0  0  0  0  0  0  0  0  0  0  0
  -92.7795   24.7619   -3.3950 C   0  0  0  0  0  0  0  0  0  0  0  0
  -93.4527   23.5743   -3.4497 C   0  0  0  0  0  0  0  0  0  0  0  0
  -93.1786   22.5400   -2.5834 C   0  0  0  0  0  0  0  0  0  0  0  0
  -93.9150   21.3209   -2.6876 N   0  0  0  0  0  0  0  0  0  0  0  0
  -92.2038   22.6838   -1.6277 C   0  0  0  0  0  0  0  0  0  0  0  0
  -91.5188   23.8749   -1.5625 C   0  0  0  0  0  0  0  0  0  0  0  0
  -91.7917   24.9169   -2.4320 C   0  0  0  0  0  0  0  0  0  0  0  0
  -91.1105   26.0478   -2.3372 N   0  0  0  0  0  0  0  0  0  0  0  0
  -93.5054   20.4394   -2.3452 H   0  0  0  0  0  0  0  0  0  0  0  0
  -94.8655   21.2920   -3.1041 H   0  0  0  0  0  0  0  0  0  0  0  0
 13 14  1  0  0  0
 14 15  2  0  0  0
 14 16  1  0  0  0
 16  1  1  0  0  0
  1  2  2  0  0  0
  2  3  1  0  0  0
  3  4  2  0  0  0
  3  5  1  0  0  0
  5  6  1  0  0  0
  6  7  2  0  0  0
  7  8  1  0  0  0
  8  9  2  0  0  0
  9 18  1  0  0  0
 18 19  2  0  0  0
 19 20  1  0  0  0
 20 21  2  0  0  0
 21 22  1  0  0  0
 22 23  2  0  0  0
 23 24  1  0  0  0
 24 25  2  0  0  0
 25 26  1  0  0  0
 25 27  1  0  0  0
 27 28  2  0  0  0
 28 29  1  0  0  0
 29 30  2  0  0  0
  9 10  1  0  0  0
 10 11  2  0  0  0
 11  2  1  0  0  0
 11  6  1  0  0  0
 30 20  1  0  0  0
 29 23  1  0  0  0
 16 17  1  0  0  0
  5 12  1  0  0  0
 26 31  1  0  0  0
 26 32  1  0  0  0
M  END
> <minimizedAffinity>
-7.30617

> <CNNscore>
0.1958698928

> <CNNaffinity>
5.8599815369

> <CNN_VS>
1.1477940083

> <CNNaffinity_variance>
0.3500350714

$$$$
[H]/C(=C(/[H])c1c([H])c([H])c2c(c1[H])/C(=N/N([H])C(=O)C([H])([H])[H])C(=O)N2[H])c1nc2c([H])c([H])c(N([H])[H])c([H])c2c([H])c1[H]


 32 35  0  0  0  0  0  0  0  0999 V2000
  -86.9248   30.8880   -0.2750 N   0  0  0  0  0  0  0  0  0  0  0  0
  -86.6129   31.9291   -0.9834 C   0  0  0  0  0  0  0  0  0  0  0  0
  -85.5290   32.8456   -0.7240 C   0  0  0  0  0  0  0  0  0  0  0  0
  -84.7273   32.7576    0.2394 O   0  0  0  0  0  0  0  0  0  0  0  0
  -85.5798   33.8201   -1.7614 N   0  0  0  0  0  0  0  0  0  0  0  0
  -86.6408   33.5564   -2.6534 C   0  0  0  0  0  0  0  0  0  0  0  0
  -87.0811   34.2040   -3.7863 C   0  0  0  0  0  0  0  0  0  0  0  0
  -88.1816   33.6966   -4.4760 C   0  0  0  0  0  0  0  0  0  0  0  0
  -88.8429   32.5675   -4.0600 C   0  0  0  0  0  0  0  0  0  0  0  0
  -88.3551   31.9587   -2.9145 C   0  0  0  0  0  0  0  0  0  0  0  0
  -87.2740   32.4221   -2.2016 C   0  0  0  0  0  0  0  0  0  0  0  0
  -84.9189   34.6091   -1.8350 H   0  0  0  0  0  0  0  0  0  0  0  0
  -85.1991   28.7287    2.3503 C   0  0  0  0  0  0  0  0  0  0  0  0
  -85.9528   29.1570    1.1456 C   0  0  0  0  0  0  0  0  0  0  0  0
  -86.3598   28.2493    0.3663 O   0  0  0  0  0  0  0  0  0  0  0  0
  -86.2126   30.5245    0.8682 N   0  0  0  0  0  0  0  0  0  0  0  0
  -85.8544   31.2305    1.5433 H   0  0  0  0  0  0  0  0  0  0  0  0
  -89.9977   31.9805   -4.7289 C   0  0  0  0  0  0  0  0  0  0  0  0
  -90.7527   31.0243   -4.2510 C   0  0  0  0  0  0  0  0  0  0  0  0
  -91.9082   30.4337   -4.9152 C   0  0  0  0  0  0  0  0  0  0  0  0
  -92.9777   31.1353   -5.3744 C   0  0  0  0  0  0  0  0  0  0  0  0
  -94.0428   30.4824   -6.0001 C   0  0  0  0  0  0  0  0  0  0  0  0
  -94.0523   29.1332   -6.1731 C   0  0  0  0  0  0  0  0  0  0  0  0
  -95.0538   28.4240   -6.7734 C   0  0  0  0  0  0  0  0  0  0  0  0
  -94.9956   27.0557   -6.9140 C   0  0  0  0  0  0  0  0  0  0  0  0
  -96.0727   26.3672   -7.5503 N   0  0  0  0  0  0  0  0  0  0  0  0
  -93.9080   26.3621   -6.4445 C   0  0  0  0  0  0  0  0  0  0  0  0
  -92.8929   27.0649   -5.8380 C   0  0  0  0  0  0  0  0  0  0  0  0
  -92.9482   28.4407   -5.6950 C   0  0  0  0  0  0  0  0  0  0  0  0
  -91.9509   29.0810   -5.1054 N   0  0  0  0  0  0  0  0  0  0  0  0
  -95.9079   25.4555   -8.0015 H   0  0  0  0  0  0  0  0  0  0  0  0
  -97.0330   26.7610   -7.5745 H   0  0  0  0  0  0  0  0  0  0  0  0
 13 14  1  0  0  0
 14 15  2  0  0  0
 14 16  1  0  0  0
 16  1  1  0  0  0
  1  2  2  0  0  0
  2  3  1  0  0  0
  3  4  2  0  0  0
  3  5  1  0  0  0
  5  6  1  0  0  0
  6  7  2  0  0  0
  7  8  1  0  0  0
  8  9  2  0  0  0
  9 18  1  0  0  0
 18 19  2  0  0  0
 19 20  1  0  0  0
 20 21  2  0  0  0
 21 22  1  0  0  0
 22 23  2  0  0  0
 23 24  1  0  0  0
 24 25  2  0  0  0
 25 26  1  0  0  0
 25 27  1  0  0  0
 27 28  2  0  0  0
 28 29  1  0  0  0
 29 30  2  0  0  0
  9 10  1  0  0  0
 10 11  2  0  0  0
 11  2  1  0  0  0
 11  6  1  0  0  0
 30 20  1  0  0  0
 29 23  1  0  0  0
 16 17  1  0  0  0
  5 12  1  0  0  0
 26 31  1  0  0  0
 26 32  1  0  0  0
M  END
> <minimizedAffinity>
-7.76738

> <CNNscore>
0.1765577644

> <CNNaffinity>
5.6410183907

> <CNN_VS>
0.9959656000

> <CNNaffinity_variance>
0.2126048803

$$$$
[H]/C(=C(/[H])c1c([H])c([H])c2c(c1[H])/C(=N/N([H])C(=O)C([H])([H])[H])C(=O)N2[H])c1nc2c([H])c([H])c(N([H])[H])c([H])c2c([H])c1[H]


 32 35  0  0  0  0  0  0  0  0999 V2000
  -85.4747   29.4458    0.7888 N   0  0  0  0  0  0  0  0  0  0  0  0
  -85.8317   30.6179    0.3625 C   0  0  0  0  0  0  0  0  0  0  0  0
  -85.0324   31.8189    0.3949 C   0  0  0  0  0  0  0  0  0  0  0  0
  -83.8629   31.8928    0.8481 O   0  0  0  0  0  0  0  0  0  0  0  0
  -85.8384   32.8445   -0.1769 N   0  0  0  0  0  0  0  0  0  0  0  0
  -87.0990   32.3425   -0.5635 C   0  0  0  0  0  0  0  0  0  0  0  0
  -88.1939   32.9391   -1.1482 C   0  0  0  0  0  0  0  0  0  0  0  0
  -89.3251   32.1697   -1.4182 C   0  0  0  0  0  0  0  0  0  0  0  0
  -89.3823   30.8310   -1.1185 C   0  0  0  0  0  0  0  0  0  0  0  0
  -88.2514   30.2856   -0.5317 C   0  0  0  0  0  0  0  0  0  0  0  0
  -87.1137   31.0041   -0.2468 C   0  0  0  0  0  0  0  0  0  0  0  0
  -85.5247   33.8214   -0.2860 H   0  0  0  0  0  0  0  0  0  0  0  0
  -82.6768   27.7579    2.7523 C   0  0  0  0  0  0  0  0  0  0  0  0
  -83.9959   28.0476    2.1368 C   0  0  0  0  0  0  0  0  0  0  0  0
  -84.9233   27.2136    2.3399 O   0  0  0  0  0  0  0  0  0  0  0  0
  -84.2203   29.2081    1.3511 N   0  0  0  0  0  0  0  0  0  0  0  0
  -83.4218   29.8613    1.2159 H   0  0  0  0  0  0  0  0  0  0  0  0
  -90.5281   29.9658   -1.3714 C   0  0  0  0  0  0  0  0  0  0  0  0
  -90.5645   28.6715   -1.1807 C   0  0  0  0  0  0  0  0  0  0  0  0
  -91.7070   27.8015   -1.4319 C   0  0  0  0  0  0  0  0  0  0  0  0
  -92.7216   28.0869   -2.2899 C   0  0  0  0  0  0  0  0  0  0  0  0
  -93.7785   27.1903   -2.4670 C   0  0  0  0  0  0  0  0  0  0  0  0
  -93.8341   26.0088   -1.7953 C   0  0  0  0  0  0  0  0  0  0  0  0
  -94.8311   25.0824   -1.9141 C   0  0  0  0  0  0  0  0  0  0  0  0
  -94.8216   23.9049   -1.2007 C   0  0  0  0  0  0  0  0  0  0  0  0
  -95.8914   22.9735   -1.3657 N   0  0  0  0  0  0  0  0  0  0  0  0
  -93.7892   23.6322   -0.3381 C   0  0  0  0  0  0  0  0  0  0  0  0
  -92.7792   24.5571   -0.2097 C   0  0  0  0  0  0  0  0  0  0  0  0
  -92.7856   25.7420   -0.9254 C   0  0  0  0  0  0  0  0  0  0  0  0
  -91.7950   26.6068   -0.7741 N   0  0  0  0  0  0  0  0  0  0  0  0
  -95.7408   21.9736   -1.1669 H   0  0  0  0  0  0  0  0  0  0  0  0
  -96.8322   23.2747   -1.6849 H   0  0  0  0  0  0  0  0  0  0  0  0
 13 14  1  0  0  0
 14 15  2  0  0  0
 14 16  1  0  0  0
 16  1  1  0  0  0
  1  2  2  0  0  0
  2  3  1  0  0  0
  3  4  2  0  0  0
  3  5  1  0  0  0
  5  6  1  0  0  0
  6  7  2  0  0  0
  7  8  1  0  0  0
  8  9  2  0  0  0
  9 18  1  0  0  0
 18 19  2  0  0  0
 19 20  1  0  0  0
 20 21  2  0  0  0
 21 22  1  0  0  0
 22 23  2  0  0  0
 23 24  1  0  0  0
 24 25  2  0  0  0
 25 26  1  0  0  0
 25 27  1  0  0  0
 27 28  2  0  0  0
 28 29  1  0  0  0
 29 30  2  0  0  0
  9 10  1  0  0  0
 10 11  2  0  0  0
 11  2  1  0  0  0
 11  6  1  0  0  0
 30 20  1  0  0  0
 29 23  1  0  0  0
 16 17  1  0  0  0
  5 12  1  0  0  0
 26 31  1  0  0  0
 26 32  1  0  0  0
M  END
> <minimizedAffinity>
-7.60638

> <CNNscore>
0.1736356616

> <CNNaffinity>
6.0961656570

> <CNN_VS>
1.0585117340

> <CNNaffinity_variance>
0.3936304152

$$$$
[H]/C(=C(/[H])c1c([H])c([H])c2c(c1[H])/C(=N/N([H])C(=O)C([H])([H])[H])C(=O)N2[H])c1nc2c([H])c([H])c(N([H])[H])c([H])c2c([H])c1[H]


 32 35  0  0  0  0  0  0  0  0999 V2000
  -90.1077   28.3939    0.9782 N   0  0  0  0  0  0  0  0  0  0  0  0
  -90.7869   27.8662    0.0069 C   0  0  0  0  0  0  0  0  0  0  0  0
  -91.3782   26.5500   -0.0058 C   0  0  0  0  0  0  0  0  0  0  0  0
  -91.3140   25.7233    0.9381 O   0  0  0  0  0  0  0  0  0  0  0  0
  -92.0168   26.4169   -1.2718 N   0  0  0  0  0  0  0  0  0  0  0  0
  -91.8527   27.5838   -2.0478 C   0  0  0  0  0  0  0  0  0  0  0  0
  -92.2803   27.9231   -3.3122 C   0  0  0  0  0  0  0  0  0  0  0  0
  -91.9570   29.1784   -3.8261 C   0  0  0  0  0  0  0  0  0  0  0  0
  -91.2230   30.0905   -3.1089 C   0  0  0  0  0  0  0  0  0  0  0  0
  -90.8205   29.6939   -1.8434 C   0  0  0  0  0  0  0  0  0  0  0  0
  -91.1151   28.4675   -1.2949 C   0  0  0  0  0  0  0  0  0  0  0  0
  -92.5279   25.5702   -1.5660 H   0  0  0  0  0  0  0  0  0  0  0  0
  -90.3875   27.3203    4.6253 C   0  0  0  0  0  0  0  0  0  0  0  0
  -90.6155   28.0201    3.3364 C   0  0  0  0  0  0  0  0  0  0  0  0
  -91.5137   28.9086    3.3130 O   0  0  0  0  0  0  0  0  0  0  0  0
  -89.8641   27.7142    2.1718 N   0  0  0  0  0  0  0  0  0  0  0  0
  -89.1369   26.9739    2.2471 H   0  0  0  0  0  0  0  0  0  0  0  0
  -90.8482   31.4182   -3.5803 C   0  0  0  0  0  0  0  0  0  0  0  0
  -90.3430   31.6971   -4.7550 C   0  0  0  0  0  0  0  0  0  0  0  0
  -89.9663   33.0223   -5.2315 C   0  0  0  0  0  0  0  0  0  0  0  0
  -90.6588   33.7360   -6.1579 C   0  0  0  0  0  0  0  0  0  0  0  0
  -90.2211   35.0020   -6.5551 C   0  0  0  0  0  0  0  0  0  0  0  0
  -89.0968   35.5653   -6.0364 C   0  0  0  0  0  0  0  0  0  0  0  0
  -88.6058   36.7950   -6.3728 C   0  0  0  0  0  0  0  0  0  0  0  0
  -87.4588   37.3026   -5.8052 C   0  0  0  0  0  0  0  0  0  0  0  0
  -86.9926   38.5946   -6.1959 N   0  0  0  0  0  0  0  0  0  0  0  0
  -86.7713   36.5687   -4.8709 C   0  0  0  0  0  0  0  0  0  0  0  0
  -87.2555   35.3289   -4.5237 C   0  0  0  0  0  0  0  0  0  0  0  0
  -88.4085   34.8155   -5.0924 C   0  0  0  0  0  0  0  0  0  0  0  0
  -88.8425   33.6181   -4.7318 N   0  0  0  0  0  0  0  0  0  0  0  0
  -86.4016   39.1455   -5.5562 H   0  0  0  0  0  0  0  0  0  0  0  0
  -87.2333   39.0051   -7.1186 H   0  0  0  0  0  0  0  0  0  0  0  0
 13 14  1  0  0  0
 14 15  2  0  0  0
 14 16  1  0  0  0
 16  1  1  0  0  0
  1  2  2  0  0  0
  2  3  1  0  0  0
  3  4  2  0  0  0
  3  5  1  0  0  0
  5  6  1  0  0  0
  6  7  2  0  0  0
  7  8  1  0  0  0
  8  9  2  0  0  0
  9 18  1  0  0  0
 18 19  2  0  0  0
 19 20  1  0  0  0
 20 21  2  0  0  0
 21 22  1  0  0  0
 22 23  2  0  0  0
 23 24  1  0  0  0
 24 25  2  0  0  0
 25 26  1  0  0  0
 25 27  1  0  0  0
 27 28  2  0  0  0
 28 29  1  0  0  0
 29 30  2  0  0  0
  9 10  1  0  0  0
 10 11  2  0  0  0
 11  2  1  0  0  0
 11  6  1  0  0  0
 30 20  1  0  0  0
 29 23  1  0  0  0
 16 17  1  0  0  0
  5 12  1  0  0  0
 26 31  1  0  0  0
 26 32  1  0  0  0
M  END
> <minimizedAffinity>
-6.95361

> <CNNscore>
0.1596418470

> <CNNaffinity>
5.3618907928

> <CNN_VS>
0.8559821248

> <CNNaffinity_variance>
0.1260094643

$$$$
[H]/C(=C(/[H])c1c([H])c([H])c2c(c1[H])/C(=N/N([H])C(=O)C([H])([H])[H])C(=O)N2[H])c1nc2c([H])c([H])c(N([H])[H])c([H])c2c([H])c1[H]


 32 35  0  0  0  0  0  0  0  0999 V2000
  -92.6639   25.8996   -3.4308 N   0  0  0  0  0  0  0  0  0  0  0  0
  -93.3883   26.9754   -3.4616 C   0  0  0  0  0  0  0  0  0  0  0  0
  -94.8061   27.0436   -3.7213 C   0  0  0  0  0  0  0  0  0  0  0  0
  -95.5429   26.0534   -3.9566 O   0  0  0  0  0  0  0  0  0  0  0  0
  -95.1538   28.4229   -3.6515 N   0  0  0  0  0  0  0  0  0  0  0  0
  -94.0240   29.2167   -3.3616 C   0  0  0  0  0  0  0  0  0  0  0  0
  -93.8633   30.5747   -3.1985 C   0  0  0  0  0  0  0  0  0  0  0  0
  -92.5961   31.0805   -2.9109 C   0  0  0  0  0  0  0  0  0  0  0  0
  -91.4990   30.2645   -2.7848 C   0  0  0  0  0  0  0  0  0  0  0  0
  -91.7213   28.9078   -2.9593 C   0  0  0  0  0  0  0  0  0  0  0  0
  -92.9519   28.3632   -3.2438 C   0  0  0  0  0  0  0  0  0  0  0  0
  -96.1120   28.7771   -3.7969 H   0  0  0  0  0  0  0  0  0  0  0  0
  -93.0575   22.1078   -3.4232 C   0  0  0  0  0  0  0  0  0  0  0  0
  -92.5189   23.4734   -3.2041 C   0  0  0  0  0  0  0  0  0  0  0  0
  -91.4167   23.5681   -2.5933 O   0  0  0  0  0  0  0  0  0  0  0  0
  -93.2022   24.6325   -3.6559 N   0  0  0  0  0  0  0  0  0  0  0  0
  -94.1060   24.4969   -4.1532 H   0  0  0  0  0  0  0  0  0  0  0  0
  -90.1471   30.7212   -2.4861 C   0  0  0  0  0  0  0  0  0  0  0  0
  -89.7497   31.2415   -1.3528 C   0  0  0  0  0  0  0  0  0  0  0  0
  -88.3997   31.6999   -1.0487 C   0  0  0  0  0  0  0  0  0  0  0  0
  -87.9619   32.9760   -1.2118 C   0  0  0  0  0  0  0  0  0  0  0  0
  -86.6469   33.3245   -0.8930 C   0  0  0  0  0  0  0  0  0  0  0  0
  -85.7617   32.4108   -0.4116 C   0  0  0  0  0  0  0  0  0  0  0  0
  -84.4632   32.6734   -0.0777 C   0  0  0  0  0  0  0  0  0  0  0  0
  -83.6222   31.6961    0.4049 C   0  0  0  0  0  0  0  0  0  0  0  0
  -82.2740   32.0292    0.7375 N   0  0  0  0  0  0  0  0  0  0  0  0
  -84.0804   30.4119    0.5637 C   0  0  0  0  0  0  0  0  0  0  0  0
  -85.3860   30.1347    0.2311 C   0  0  0  0  0  0  0  0  0  0  0  0
  -86.2344   31.1150   -0.2545 C   0  0  0  0  0  0  0  0  0  0  0  0
  -87.4845   30.8085   -0.5634 N   0  0  0  0  0  0  0  0  0  0  0  0
  -81.7570   31.4628    1.4260 H   0  0  0  0  0  0  0  0  0  0  0  0
  -81.7886   32.8369    0.3019 H   0  0  0  0  0  0  0  0  0  0  0  0
 13 14  1  0  0  0
 14 15  2  0  0  0
 14 16  1  0  0  0
 16  1  1  0  0  0
  1  2  2  0  0  0
  2  3  1  0  0  0
  3  4  2  0  0  0
  3  5  1  0  0  0
  5  6  1  0  0  0
  6  7  2  0  0  0
  7  8  1  0  0  0
  8  9  2  0  0  0
  9 18  1  0  0  0
 18 19  2  0  0  0
 19 20  1  0  0  0
 20 21  2  0  0  0
 21 22  1  0  0  0
 22 23  2  0  0  0
 23 24  1  0  0  0
 24 25  2  0  0  0
 25 26  1  0  0  0
 25 27  1  0  0  0
 27 28  2  0  0  0
 28 29  1  0  0  0
 29 30  2  0  0  0
  9 10  1  0  0  0
 10 11  2  0  0  0
 11  2  1  0  0  0
 11  6  1  0  0  0
 30 20  1  0  0  0
 29 23  1  0  0  0
 16 17  1  0  0  0
  5 12  1  0  0  0
 26 31  1  0  0  0
 26 32  1  0  0  0
M  END
> <minimizedAffinity>
-7.54875

> <CNNscore>
0.1473926753

> <CNNaffinity>
5.6237053871

> <CNN_VS>
0.8288930058

> <CNNaffinity_variance>
0.1533801854

$$$$
[H]c1c([H])c([H])c(-c2c([H])c([H])c3c(c2[H])c(C(=O)N([H])C([H])([H])C([H])([H])C([H])([H])N([H])N(C([H])([H])[H])C([H])([H])[H])c(-c2c([H])c([H])c([H])c([H])c2[H])n3[H])c([H])c1[H]


 34 37  0  0  0  0  0  0  0  0999 V2000
  -87.3262   30.3267   -0.5175 C   0  0  0  0  0  0  0  0  0  0  0  0
  -86.3851   31.3727   -0.5516 C   0  0  0  0  0  0  0  0  0  0  0  0
  -86.9045   32.2723   -1.3957 N   0  0  0  0  0  0  0  0  0  0  0  0
  -88.0978   31.8475   -1.8809 C   0  0  0  0  0  0  0  0  0  0  0  0
  -88.9638   32.4538   -2.7522 C   0  0  0  0  0  0  0  0  0  0  0  0
  -90.1233   31.7986   -3.0677 C   0  0  0  0  0  0  0  0  0  0  0  0
  -90.4630   30.5443   -2.5379 C   0  0  0  0  0  0  0  0  0  0  0  0
  -89.5757   29.9764   -1.6692 C   0  0  0  0  0  0  0  0  0  0  0  0
  -88.3844   30.6008   -1.3224 C   0  0  0  0  0  0  0  0  0  0  0  0
  -86.4435   33.1761   -1.6531 H   0  0  0  0  0  0  0  0  0  0  0  0
  -91.7168   29.9250   -2.9235 C   0  0  0  0  0  0  0  0  0  0  0  0
  -91.7772   28.5383   -3.0720 C   0  0  0  0  0  0  0  0  0  0  0  0
  -92.9820   27.9119   -3.5003 C   0  0  0  0  0  0  0  0  0  0  0  0
  -94.0912   28.6296   -3.7784 C   0  0  0  0  0  0  0  0  0  0  0  0
  -94.0273   30.0075   -3.6254 C   0  0  0  0  0  0  0  0  0  0  0  0
  -92.8703   30.6322   -3.2087 C   0  0  0  0  0  0  0  0  0  0  0  0
  -85.1283   31.3911    0.1713 C   0  0  0  0  0  0  0  0  0  0  0  0
  -85.0281   31.8093    1.4563 C   0  0  0  0  0  0  0  0  0  0  0  0
  -83.7956   31.7601    2.1124 C   0  0  0  0  0  0  0  0  0  0  0  0
  -82.6888   31.2837    1.4396 C   0  0  0  0  0  0  0  0  0  0  0  0
  -82.8306   30.8703    0.1260 C   0  0  0  0  0  0  0  0  0  0  0  0
  -84.0230   30.9122   -0.5211 C   0  0  0  0  0  0  0  0  0  0  0  0
  -85.9345   28.9393    1.1024 N   0  0  0  0  0  0  0  0  0  0  0  0
  -87.0672   29.1782    0.3263 C   0  0  0  0  0  0  0  0  0  0  0  0
  -87.9995   28.3032    0.3558 O   0  0  0  0  0  0  0  0  0  0  0  0
  -85.1516   29.6240    1.0740 H   0  0  0  0  0  0  0  0  0  0  0  0
  -85.8072   27.7813    1.9502 C   0  0  0  0  0  0  0  0  0  0  0  0
  -84.7118   27.8584    2.9125 C   0  0  0  0  0  0  0  0  0  0  0  0
  -83.2953   27.7416    2.3284 C   0  0  0  0  0  0  0  0  0  0  0  0
  -82.6944   26.7759    3.2162 N   0  0  0  0  0  0  0  0  0  0  0  0
  -83.1328   27.0276    4.1928 H   0  0  0  0  0  0  0  0  0  0  0  0
  -80.7508   25.5042    3.0903 C   0  0  0  0  0  0  0  0  0  0  0  0
  -81.3238   26.8549    3.3160 N   0  0  0  0  0  0  0  0  0  0  0  0
  -80.6876   27.7735    2.3866 C   0  0  0  0  0  0  0  0  0  0  0  0
 32 33  1  0  0  0
 33 34  1  0  0  0
 33 30  1  0  0  0
 30 29  1  0  0  0
 29 28  1  0  0  0
 28 27  1  0  0  0
 27 23  1  0  0  0
 23 24  1  0  0  0
 24 25  2  0  0  0
 24  1  1  0  0  0
  1  2  2  0  0  0
  2  3  1  0  0  0
  3  4  1  0  0  0
  4  5  2  0  0  0
  5  6  1  0  0  0
  6  7  2  0  0  0
  7  8  1  0  0  0
  8  9  2  0  0  0
  7 11  1  0  0  0
 11 12  2  0  0  0
 12 13  1  0  0  0
 13 14  2  0  0  0
 14 15  1  0  0  0
 15 16  2  0  0  0
  2 17  1  0  0  0
 17 18  2  0  0  0
 18 19  1  0  0  0
 19 20  2  0  0  0
 20 21  1  0  0  0
 21 22  2  0  0  0
  9  1  1  0  0  0
 16 11  1  0  0  0
 22 17  1  0  0  0
  9  4  1  0  0  0
 30 31  1  0  0  0
 23 26  1  0  0  0
  3 10  1  0  0  0
M  END
> <minimizedAffinity>
-1.17383

> <CNNscore>
0.4172513485

> <CNNaffinity>
6.4380784035

> <CNN_VS>
2.6862969398

> <CNNaffinity_variance>
0.1523768008

$$$$
[H]c1c([H])c([H])c(-c2c([H])c([H])c3c(c2[H])c(C(=O)N([H])C([H])([H])C([H])([H])C([H])([H])N([H])N(C([H])([H])[H])C([H])([H])[H])c(-c2c([H])c([H])c([H])c([H])c2[H])n3[H])c([H])c1[H]


 34 37  0  0  0  0  0  0  0  0999 V2000
  -87.6688   32.5814   -2.0760 C   0  0  0  0  0  0  0  0  0  0  0  0
  -87.5049   33.8080   -2.7464 C   0  0  0  0  0  0  0  0  0  0  0  0
  -86.2811   34.2256   -2.4008 N   0  0  0  0  0  0  0  0  0  0  0  0
  -85.6861   33.3391   -1.5642 C   0  0  0  0  0  0  0  0  0  0  0  0
  -84.4450   33.3668   -0.9849 C   0  0  0  0  0  0  0  0  0  0  0  0
  -84.0868   32.3194   -0.1801 C   0  0  0  0  0  0  0  0  0  0  0  0
  -84.9276   31.2245    0.0721 C   0  0  0  0  0  0  0  0  0  0  0  0
  -86.1540   31.2325   -0.5283 C   0  0  0  0  0  0  0  0  0  0  0  0
  -86.5636   32.2751   -1.3495 C   0  0  0  0  0  0  0  0  0  0  0  0
  -85.8490   35.1219   -2.7255 H   0  0  0  0  0  0  0  0  0  0  0  0
  -84.4633   30.1546    0.9346 C   0  0  0  0  0  0  0  0  0  0  0  0
  -85.3888   29.2562    1.4684 C   0  0  0  0  0  0  0  0  0  0  0  0
  -84.9644   28.2296    2.3590 C   0  0  0  0  0  0  0  0  0  0  0  0
  -83.6695   28.0952    2.7165 C   0  0  0  0  0  0  0  0  0  0  0  0
  -82.7526   28.9883    2.1801 C   0  0  0  0  0  0  0  0  0  0  0  0
  -83.1439   29.9874    1.3134 C   0  0  0  0  0  0  0  0  0  0  0  0
  -88.5018   34.4411   -3.5878 C   0  0  0  0  0  0  0  0  0  0  0  0
  -89.4020   35.3350   -3.1113 C   0  0  0  0  0  0  0  0  0  0  0  0
  -90.3084   35.9447   -3.9823 C   0  0  0  0  0  0  0  0  0  0  0  0
  -90.2758   35.6271   -5.3249 C   0  0  0  0  0  0  0  0  0  0  0  0
  -89.3447   34.7056   -5.7723 C   0  0  0  0  0  0  0  0  0  0  0  0
  -88.4584   34.1079   -4.9359 C   0  0  0  0  0  0  0  0  0  0  0  0
  -89.2207   30.9517   -3.2679 N   0  0  0  0  0  0  0  0  0  0  0  0
  -88.9060   31.8483   -2.2484 C   0  0  0  0  0  0  0  0  0  0  0  0
  -89.7904   32.0536   -1.3477 O   0  0  0  0  0  0  0  0  0  0  0  0
  -88.5273   30.7886   -4.0263 H   0  0  0  0  0  0  0  0  0  0  0  0
  -90.4696   30.2344   -3.3097 C   0  0  0  0  0  0  0  0  0  0  0  0
  -91.3529   30.6287   -4.4035 C   0  0  0  0  0  0  0  0  0  0  0  0
  -92.5235   29.6775   -4.6975 C   0  0  0  0  0  0  0  0  0  0  0  0
  -92.1676   29.1747   -6.0023 N   0  0  0  0  0  0  0  0  0  0  0  0
  -92.7364   29.8237   -6.6839 H   0  0  0  0  0  0  0  0  0  0  0  0
  -92.5786   27.1462   -4.9407 C   0  0  0  0  0  0  0  0  0  0  0  0
  -92.5279   27.8672   -6.2374 N   0  0  0  0  0  0  0  0  0  0  0  0
  -93.8084   27.6879   -6.9010 C   0  0  0  0  0  0  0  0  0  0  0  0
 32 33  1  0  0  0
 33 34  1  0  0  0
 33 30  1  0  0  0
 30 29  1  0  0  0
 29 28  1  0  0  0
 28 27  1  0  0  0
 27 23  1  0  0  0
 23 24  1  0  0  0
 24 25  2  0  0  0
 24  1  1  0  0  0
  1  2  2  0  0  0
  2  3  1  0  0  0
  3  4  1  0  0  0
  4  5  2  0  0  0
  5  6  1  0  0  0
  6  7  2  0  0  0
  7  8  1  0  0  0
  8  9  2  0  0  0
  7 11  1  0  0  0
 11 12  2  0  0  0
 12 13  1  0  0  0
 13 14  2  0  0  0
 14 15  1  0  0  0
 15 16  2  0  0  0
  2 17  1  0  0  0
 17 18  2  0  0  0
 18 19  1  0  0  0
 19 20  2  0  0  0
 20 21  1  0  0  0
 21 22  2  0  0  0
  9  1  1  0  0  0
 16 11  1  0  0  0
 22 17  1  0  0  0
  9  4  1  0  0  0
 30 31  1  0  0  0
 23 26  1  0  0  0
  3 10  1  0  0  0
M  END
> <minimizedAffinity>
-9.40916

> <CNNscore>
0.4156837761

> <CNNaffinity>
6.1029214859

> <CNN_VS>
2.5368855000

> <CNNaffinity_variance>
0.2551563680

$$$$
[H]c1c([H])c([H])c(-c2c([H])c([H])c3c(c2[H])c(C(=O)N([H])C([H])([H])C([H])([H])C([H])([H])N([H])N(C([H])([H])[H])C([H])([H])[H])c(-c2c([H])c([H])c([H])c([H])c2[H])n3[H])c([H])c1[H]


 34 37  0  0  0  0  0  0  0  0999 V2000
  -87.6061   32.6554   -2.0089 C   0  0  0  0  0  0  0  0  0  0  0  0
  -87.4064   33.8738   -2.6844 C   0  0  0  0  0  0  0  0  0  0  0  0
  -86.1819   34.2711   -2.3178 N   0  0  0  0  0  0  0  0  0  0  0  0
  -85.6200   33.3798   -1.4636 C   0  0  0  0  0  0  0  0  0  0  0  0
  -84.3901   33.3887   -0.8603 C   0  0  0  0  0  0  0  0  0  0  0  0
  -84.0672   32.3407   -0.0414 C   0  0  0  0  0  0  0  0  0  0  0  0
  -84.9331   31.2634    0.2018 C   0  0  0  0  0  0  0  0  0  0  0  0
  -86.1473   31.2898   -0.4225 C   0  0  0  0  0  0  0  0  0  0  0  0
  -86.5213   32.3338   -1.2588 C   0  0  0  0  0  0  0  0  0  0  0  0
  -85.7268   35.1568   -2.6402 H   0  0  0  0  0  0  0  0  0  0  0  0
  -84.5058   30.1914    1.0806 C   0  0  0  0  0  0  0  0  0  0  0  0
  -83.1453   30.0261    1.3460 C   0  0  0  0  0  0  0  0  0  0  0  0
  -82.6969   28.9498    2.1633 C   0  0  0  0  0  0  0  0  0  0  0  0
  -83.5612   28.0613    2.6983 C   0  0  0  0  0  0  0  0  0  0  0  0
  -84.9130   28.2321    2.4347 C   0  0  0  0  0  0  0  0  0  0  0  0
  -85.3670   29.2702    1.6480 C   0  0  0  0  0  0  0  0  0  0  0  0
  -88.3747   34.5192   -3.5495 C   0  0  0  0  0  0  0  0  0  0  0  0
  -89.4326   35.2185   -3.0717 C   0  0  0  0  0  0  0  0  0  0  0  0
  -90.3054   35.8558   -3.9573 C   0  0  0  0  0  0  0  0  0  0  0  0
  -90.0781   35.7646   -5.3154 C   0  0  0  0  0  0  0  0  0  0  0  0
  -88.9894   35.0369   -5.7646 C   0  0  0  0  0  0  0  0  0  0  0  0
  -88.1341   34.4147   -4.9139 C   0  0  0  0  0  0  0  0  0  0  0  0
  -89.1799   31.0788   -3.2430 N   0  0  0  0  0  0  0  0  0  0  0  0
  -88.8533   31.9441   -2.2005 C   0  0  0  0  0  0  0  0  0  0  0  0
  -89.7352   32.1381   -1.2947 O   0  0  0  0  0  0  0  0  0  0  0  0
  -88.4885   30.9260   -4.0053 H   0  0  0  0  0  0  0  0  0  0  0  0
  -90.4385   30.3801   -3.3036 C   0  0  0  0  0  0  0  0  0  0  0  0
  -91.3020   30.7917   -4.4068 C   0  0  0  0  0  0  0  0  0  0  0  0
  -91.2338   32.2771   -4.7948 C   0  0  0  0  0  0  0  0  0  0  0  0
  -92.3456   32.8215   -4.0537 N   0  0  0  0  0  0  0  0  0  0  0  0
  -92.2589   32.3284   -3.0746 H   0  0  0  0  0  0  0  0  0  0  0  0
  -94.6250   33.0507   -3.6506 C   0  0  0  0  0  0  0  0  0  0  0  0
  -93.5860   32.5396   -4.5795 N   0  0  0  0  0  0  0  0  0  0  0  0
  -93.8433   33.1029   -5.8945 C   0  0  0  0  0  0  0  0  0  0  0  0
 32 33  1  0  0  0
 33 34  1  0  0  0
 33 30  1  0  0  0
 30 29  1  0  0  0
 29 28  1  0  0  0
 28 27  1  0  0  0
 27 23  1  0  0  0
 23 24  1  0  0  0
 24 25  2  0  0  0
 24  1  1  0  0  0
  1  2  2  0  0  0
  2  3  1  0  0  0
  3  4  1  0  0  0
  4  5  2  0  0  0
  5  6  1  0  0  0
  6  7  2  0  0  0
  7  8  1  0  0  0
  8  9  2  0  0  0
  7 11  1  0  0  0
 11 12  2  0  0  0
 12 13  1  0  0  0
 13 14  2  0  0  0
 14 15  1  0  0  0
 15 16  2  0  0  0
  2 17  1  0  0  0
 17 18  2  0  0  0
 18 19  1  0  0  0
 19 20  2  0  0  0
 20 21  1  0  0  0
 21 22  2  0  0  0
  9  1  1  0  0  0
 16 11  1  0  0  0
 22 17  1  0  0  0
  9  4  1  0  0  0
 30 31  1  0  0  0
 23 26  1  0  0  0
  3 10  1  0  0  0
M  END
> <minimizedAffinity>
-8.76642

> <CNNscore>
0.3624741435

> <CNNaffinity>
6.2383980751

> <CNN_VS>
2.2612578869

> <CNNaffinity_variance>
0.1517951638

$$$$
[H]c1c([H])c([H])c(-c2c([H])c([H])c3c(c2[H])c(C(=O)N([H])C([H])([H])C([H])([H])C([H])([H])N([H])N(C([H])([H])[H])C([H])([H])[H])c(-c2c([H])c([H])c([H])c([H])c2[H])n3[H])c([H])c1[H]


 34 37  0  0  0  0  0  0  0  0999 V2000
  -87.6214   32.6206   -2.1697 C   0  0  0  0  0  0  0  0  0  0  0  0
  -87.4088   33.8945   -2.7291 C   0  0  0  0  0  0  0  0  0  0  0  0
  -86.2405   34.3014   -2.2182 N   0  0  0  0  0  0  0  0  0  0  0  0
  -85.7249   33.3643   -1.3841 C   0  0  0  0  0  0  0  0  0  0  0  0
  -84.5575   33.3657   -0.6672 C   0  0  0  0  0  0  0  0  0  0  0  0
  -84.2703   32.2674    0.0973 C   0  0  0  0  0  0  0  0  0  0  0  0
  -85.1113   31.1466    0.1746 C   0  0  0  0  0  0  0  0  0  0  0  0
  -86.2624   31.1825   -0.5590 C   0  0  0  0  0  0  0  0  0  0  0  0
  -86.5988   32.2765   -1.3459 C   0  0  0  0  0  0  0  0  0  0  0  0
  -85.7933   35.2242   -2.4279 H   0  0  0  0  0  0  0  0  0  0  0  0
  -84.7247   30.0230    1.0067 C   0  0  0  0  0  0  0  0  0  0  0  0
  -83.4205   29.9540    1.4995 C   0  0  0  0  0  0  0  0  0  0  0  0
  -83.0021   28.8354    2.2749 C   0  0  0  0  0  0  0  0  0  0  0  0
  -83.8409   27.8145    2.5519 C   0  0  0  0  0  0  0  0  0  0  0  0
  -85.1376   27.8896    2.0630 C   0  0  0  0  0  0  0  0  0  0  0  0
  -85.5623   28.9663    1.3128 C   0  0  0  0  0  0  0  0  0  0  0  0
  -88.3179   34.5742   -3.6314 C   0  0  0  0  0  0  0  0  0  0  0  0
  -89.4506   35.1853   -3.2074 C   0  0  0  0  0  0  0  0  0  0  0  0
  -90.2622   35.8626   -4.1209 C   0  0  0  0  0  0  0  0  0  0  0  0
  -89.8983   35.9010   -5.4516 C   0  0  0  0  0  0  0  0  0  0  0  0
  -88.7364   35.2603   -5.8465 C   0  0  0  0  0  0  0  0  0  0  0  0
  -87.9394   34.6004   -4.9680 C   0  0  0  0  0  0  0  0  0  0  0  0
  -90.0164   31.8255   -1.8272 N   0  0  0  0  0  0  0  0  0  0  0  0
  -88.8160   31.8863   -2.5327 C   0  0  0  0  0  0  0  0  0  0  0  0
  -88.7427   31.2368   -3.6320 O   0  0  0  0  0  0  0  0  0  0  0  0
  -90.0909   32.3242   -0.9171 H   0  0  0  0  0  0  0  0  0  0  0  0
  -91.1641   31.1025   -2.3132 C   0  0  0  0  0  0  0  0  0  0  0  0
  -91.4589   29.8771   -1.5761 C   0  0  0  0  0  0  0  0  0  0  0  0
  -91.4555   28.5802   -2.4006 C   0  0  0  0  0  0  0  0  0  0  0  0
  -90.2084   28.6956   -3.1170 N   0  0  0  0  0  0  0  0  0  0  0  0
  -90.5224   28.6734   -4.1706 H   0  0  0  0  0  0  0  0  0  0  0  0
  -88.1736   28.1852   -2.1121 C   0  0  0  0  0  0  0  0  0  0  0  0
  -89.3192   27.6672   -2.9015 N   0  0  0  0  0  0  0  0  0  0  0  0
  -89.8629   26.5156   -2.2010 C   0  0  0  0  0  0  0  0  0  0  0  0
 32 33  1  0  0  0
 33 34  1  0  0  0
 33 30  1  0  0  0
 30 29  1  0  0  0
 29 28  1  0  0  0
 28 27  1  0  0  0
 27 23  1  0  0  0
 23 24  1  0  0  0
 24 25  2  0  0  0
 24  1  1  0  0  0
  1  2  2  0  0  0
  2  3  1  0  0  0
  3  4  1  0  0  0
  4  5  2  0  0  0
  5  6  1  0  0  0
  6  7  2  0  0  0
  7  8  1  0  0  0
  8  9  2  0  0  0
  7 11  1  0  0  0
 11 12  2  0  0  0
 12 13  1  0  0  0
 13 14  2  0  0  0
 14 15  1  0  0  0
 15 16  2  0  0  0
  2 17  1  0  0  0
 17 18  2  0  0  0
 18 19  1  0  0  0
 19 20  2  0  0  0
 20 21  1  0  0  0
 21 22  2  0  0  0
  9  1  1  0  0  0
 16 11  1  0  0  0
 22 17  1  0  0  0
  9  4  1  0  0  0
 30 31  1  0  0  0
 23 26  1  0  0  0
  3 10  1  0  0  0
M  END
> <minimizedAffinity>
-9.12661

> <CNNscore>
0.3611866236

> <CNNaffinity>
6.3348350525

> <CNN_VS>
2.2880575657

> <CNNaffinity_variance>
0.3164597452

$$$$
[H]c1c([H])c([H])c(-c2c([H])c([H])c3c(c2[H])c(C(=O)N([H])C([H])([H])C([H])([H])C([H])([H])N([H])N(C([H])([H])[H])C([H])([H])[H])c(-c2c([H])c([H])c([H])c([H])c2[H])n3[H])c([H])c1[H]


 34 37  0  0  0  0  0  0  0  0999 V2000
  -87.7113   32.5911   -2.0777 C   0  0  0  0  0  0  0  0  0  0  0  0
  -87.5081   33.7523   -2.8465 C   0  0  0  0  0  0  0  0  0  0  0  0
  -86.2584   34.1371   -2.5605 N   0  0  0  0  0  0  0  0  0  0  0  0
  -85.6842   33.2915   -1.6688 C   0  0  0  0  0  0  0  0  0  0  0  0
  -84.4293   33.3054   -1.1194 C   0  0  0  0  0  0  0  0  0  0  0  0
  -84.0998   32.3083   -0.2417 C   0  0  0  0  0  0  0  0  0  0  0  0
  -84.9834   31.2776    0.1138 C   0  0  0  0  0  0  0  0  0  0  0  0
  -86.2224   31.2969   -0.4597 C   0  0  0  0  0  0  0  0  0  0  0  0
  -86.6040   32.2903   -1.3523 C   0  0  0  0  0  0  0  0  0  0  0  0
  -85.7938   34.9837   -2.9641 H   0  0  0  0  0  0  0  0  0  0  0  0
  -84.5475   30.2576    1.0485 C   0  0  0  0  0  0  0  0  0  0  0  0
  -83.1814   30.0592    1.2562 C   0  0  0  0  0  0  0  0  0  0  0  0
  -82.7280   29.0296    2.1289 C   0  0  0  0  0  0  0  0  0  0  0  0
  -83.5931   28.2176    2.7731 C   0  0  0  0  0  0  0  0  0  0  0  0
  -84.9503   28.4214    2.5665 C   0  0  0  0  0  0  0  0  0  0  0  0
  -85.4089   29.4154    1.7274 C   0  0  0  0  0  0  0  0  0  0  0  0
  -88.4952   34.3644   -3.7145 C   0  0  0  0  0  0  0  0  0  0  0  0
  -88.7024   33.9569   -4.9901 C   0  0  0  0  0  0  0  0  0  0  0  0
  -89.7006   34.5576   -5.7614 C   0  0  0  0  0  0  0  0  0  0  0  0
  -90.4676   35.5644   -5.2114 C   0  0  0  0  0  0  0  0  0  0  0  0
  -90.2222   35.9560   -3.9064 C   0  0  0  0  0  0  0  0  0  0  0  0
  -89.2562   35.3790   -3.1472 C   0  0  0  0  0  0  0  0  0  0  0  0
  -89.3406   30.8980   -3.0596 N   0  0  0  0  0  0  0  0  0  0  0  0
  -88.9846   31.9063   -2.1658 C   0  0  0  0  0  0  0  0  0  0  0  0
  -89.8620   32.2765   -1.3121 O   0  0  0  0  0  0  0  0  0  0  0  0
  -88.6526   30.5986   -3.7804 H   0  0  0  0  0  0  0  0  0  0  0  0
  -90.6254   30.2470   -3.0206 C   0  0  0  0  0  0  0  0  0  0  0  0
  -90.5596   28.7944   -2.8886 C   0  0  0  0  0  0  0  0  0  0  0  0
  -90.8670   28.2324   -1.4917 C   0  0  0  0  0  0  0  0  0  0  0  0
  -90.9929   29.4413   -0.7142 N   0  0  0  0  0  0  0  0  0  0  0  0
  -90.5808   30.2118   -1.3818 H   0  0  0  0  0  0  0  0  0  0  0  0
  -91.0757   28.7650    1.5098 C   0  0  0  0  0  0  0  0  0  0  0  0
  -90.2782   29.4507    0.4621 N   0  0  0  0  0  0  0  0  0  0  0  0
  -88.9748   28.8107    0.3993 C   0  0  0  0  0  0  0  0  0  0  0  0
 32 33  1  0  0  0
 33 34  1  0  0  0
 33 30  1  0  0  0
 30 29  1  0  0  0
 29 28  1  0  0  0
 28 27  1  0  0  0
 27 23  1  0  0  0
 23 24  1  0  0  0
 24 25  2  0  0  0
 24  1  1  0  0  0
  1  2  2  0  0  0
  2  3  1  0  0  0
  3  4  1  0  0  0
  4  5  2  0  0  0
  5  6  1  0  0  0
  6  7  2  0  0  0
  7  8  1  0  0  0
  8  9  2  0  0  0
  7 11  1  0  0  0
 11 12  2  0  0  0
 12 13  1  0  0  0
 13 14  2  0  0  0
 14 15  1  0  0  0
 15 16  2  0  0  0
  2 17  1  0  0  0
 17 18  2  0  0  0
 18 19  1  0  0  0
 19 20  2  0  0  0
 20 21  1  0  0  0
 21 22  2  0  0  0
  9  1  1  0  0  0
 16 11  1  0  0  0
 22 17  1  0  0  0
  9  4  1  0  0  0
 30 31  1  0  0  0
 23 26  1  0  0  0
  3 10  1  0  0  0
M  END
> <minimizedAffinity>
-8.95078

> <CNNscore>
0.3167858124

> <CNNaffinity>
6.1294727325

> <CNN_VS>
1.9417300224

> <CNNaffinity_variance>
0.4015436172

$$$$
[H]c1c([H])c([H])c(-c2c([H])c([H])c3c(c2[H])c(C(=O)N([H])C([H])([H])C([H])([H])C([H])([H])N([H])N(C([H])([H])[H])C([H])([H])[H])c(-c2c([H])c([H])c([H])c([H])c2[H])n3[H])c([H])c1[H]


 34 37  0  0  0  0  0  0  0  0999 V2000
  -88.9890   29.9874   -2.0642 C   0  0  0  0  0  0  0  0  0  0  0  0
  -90.3537   29.6510   -1.9925 C   0  0  0  0  0  0  0  0  0  0  0  0
  -90.4800   28.9791   -0.8418 N   0  0  0  0  0  0  0  0  0  0  0  0
  -89.2860   28.8808   -0.2057 C   0  0  0  0  0  0  0  0  0  0  0  0
  -88.9676   28.2928    0.9900 C   0  0  0  0  0  0  0  0  0  0  0  0
  -87.6662   28.3516    1.4098 C   0  0  0  0  0  0  0  0  0  0  0  0
  -86.6526   28.9872    0.6763 C   0  0  0  0  0  0  0  0  0  0  0  0
  -87.0122   29.5654   -0.5073 C   0  0  0  0  0  0  0  0  0  0  0  0
  -88.3189   29.5277   -0.9767 C   0  0  0  0  0  0  0  0  0  0  0  0
  -91.3790   28.5755   -0.4887 H   0  0  0  0  0  0  0  0  0  0  0  0
  -85.3002   29.0062    1.2005 C   0  0  0  0  0  0  0  0  0  0  0  0
  -84.4110   29.9894    0.7630 C   0  0  0  0  0  0  0  0  0  0  0  0
  -83.0636   29.9977    1.2231 C   0  0  0  0  0  0  0  0  0  0  0  0
  -82.6050   29.0637    2.0833 C   0  0  0  0  0  0  0  0  0  0  0  0
  -83.4938   28.0906    2.5184 C   0  0  0  0  0  0  0  0  0  0  0  0
  -84.8036   28.0678    2.0865 C   0  0  0  0  0  0  0  0  0  0  0  0
  -91.3471   29.9666   -3.0004 C   0  0  0  0  0  0  0  0  0  0  0  0
  -91.9052   31.1957   -3.1196 C   0  0  0  0  0  0  0  0  0  0  0  0
  -92.8241   31.4490   -4.1410 C   0  0  0  0  0  0  0  0  0  0  0  0
  -93.1542   30.4385   -5.0210 C   0  0  0  0  0  0  0  0  0  0  0  0
  -92.5664   29.1951   -4.8634 C   0  0  0  0  0  0  0  0  0  0  0  0
  -91.6716   28.9376   -3.8758 C   0  0  0  0  0  0  0  0  0  0  0  0
  -88.5350   32.1256   -3.3709 N   0  0  0  0  0  0  0  0  0  0  0  0
  -88.5122   30.7421   -3.2049 C   0  0  0  0  0  0  0  0  0  0  0  0
  -88.0085   30.0416   -4.1489 O   0  0  0  0  0  0  0  0  0  0  0  0
  -88.9639   32.7145   -2.6280 H   0  0  0  0  0  0  0  0  0  0  0  0
  -87.9805   32.7753   -4.5312 C   0  0  0  0  0  0  0  0  0  0  0  0
  -87.5711   34.1589   -4.3073 C   0  0  0  0  0  0  0  0  0  0  0  0
  -87.1145   34.5016   -2.8806 C   0  0  0  0  0  0  0  0  0  0  0  0
  -85.8751   33.7685   -2.7890 N   0  0  0  0  0  0  0  0  0  0  0  0
  -85.9200   33.0926   -3.6552 H   0  0  0  0  0  0  0  0  0  0  0  0
  -84.3993   33.2888   -1.0563 C   0  0  0  0  0  0  0  0  0  0  0  0
  -85.7324   33.0121   -1.6480 N   0  0  0  0  0  0  0  0  0  0  0  0
  -86.7357   33.2440   -0.6223 C   0  0  0  0  0  0  0  0  0  0  0  0
 32 33  1  0  0  0
 33 34  1  0  0  0
 33 30  1  0  0  0
 30 29  1  0  0  0
 29 28  1  0  0  0
 28 27  1  0  0  0
 27 23  1  0  0  0
 23 24  1  0  0  0
 24 25  2  0  0  0
 24  1  1  0  0  0
  1  2  2  0  0  0
  2  3  1  0  0  0
  3  4  1  0  0  0
  4  5  2  0  0  0
  5  6  1  0  0  0
  6  7  2  0  0  0
  7  8  1  0  0  0
  8  9  2  0  0  0
  7 11  1  0  0  0
 11 12  2  0  0  0
 12 13  1  0  0  0
 13 14  2  0  0  0
 14 15  1  0  0  0
 15 16  2  0  0  0
  2 17  1  0  0  0
 17 18  2  0  0  0
 18 19  1  0  0  0
 19 20  2  0  0  0
 20 21  1  0  0  0
 21 22  2  0  0  0
  9  1  1  0  0  0
 16 11  1  0  0  0
 22 17  1  0  0  0
  9  4  1  0  0  0
 30 31  1  0  0  0
 23 26  1  0  0  0
  3 10  1  0  0  0
M  END
> <minimizedAffinity>
-8.65292

> <CNNscore>
0.1602286249

> <CNNaffinity>
6.0141839981

> <CNN_VS>
0.9636444449

> <CNNaffinity_variance>
0.6001981497

$$$$
[H]c1c([H])c([H])c(-c2c([H])c([H])c3c(c2[H])c(C(=O)N([H])C([H])([H])C([H])([H])C([H])([H])N([H])N(C([H])([H])[H])C([H])([H])[H])c(-c2c([H])c([H])c([H])c([H])c2[H])n3[H])c([H])c1[H]


 34 37  0  0  0  0  0  0  0  0999 V2000
  -87.9217   32.4511   -1.9298 C   0  0  0  0  0  0  0  0  0  0  0  0
  -88.5837   31.2226   -2.1118 C   0  0  0  0  0  0  0  0  0  0  0  0
  -89.6200   31.5076   -2.9095 N   0  0  0  0  0  0  0  0  0  0  0  0
  -89.6375   32.8263   -3.2268 C   0  0  0  0  0  0  0  0  0  0  0  0
  -90.5049   33.5337   -4.0167 C   0  0  0  0  0  0  0  0  0  0  0  0
  -90.2793   34.8736   -4.1808 C   0  0  0  0  0  0  0  0  0  0  0  0
  -89.2036   35.5482   -3.5832 C   0  0  0  0  0  0  0  0  0  0  0  0
  -88.3593   34.8064   -2.8079 C   0  0  0  0  0  0  0  0  0  0  0  0
  -88.5499   33.4451   -2.6082 C   0  0  0  0  0  0  0  0  0  0  0  0
  -90.3263   30.8066   -3.2339 H   0  0  0  0  0  0  0  0  0  0  0  0
  -89.0376   36.9703   -3.8166 C   0  0  0  0  0  0  0  0  0  0  0  0
  -89.8720   37.6151   -4.7313 C   0  0  0  0  0  0  0  0  0  0  0  0
  -89.6947   38.9988   -5.0163 C   0  0  0  0  0  0  0  0  0  0  0  0
  -88.7228   39.7235   -4.4223 C   0  0  0  0  0  0  0  0  0  0  0  0
  -87.8984   39.0790   -3.5108 C   0  0  0  0  0  0  0  0  0  0  0  0
  -88.0564   37.7401   -3.2193 C   0  0  0  0  0  0  0  0  0  0  0  0
  -88.1923   29.9638   -1.5077 C   0  0  0  0  0  0  0  0  0  0  0  0
  -87.3255   29.1059   -2.0983 C   0  0  0  0  0  0  0  0  0  0  0  0
  -86.9530   27.9291   -1.4438 C   0  0  0  0  0  0  0  0  0  0  0  0
  -87.4756   27.6533   -0.1966 C   0  0  0  0  0  0  0  0  0  0  0  0
  -88.3620   28.5522    0.3714 C   0  0  0  0  0  0  0  0  0  0  0  0
  -88.7301   29.6991   -0.2543 C   0  0  0  0  0  0  0  0  0  0  0  0
  -85.4614   32.9336   -1.4831 N   0  0  0  0  0  0  0  0  0  0  0  0
  -86.7285   32.4895   -1.1096 C   0  0  0  0  0  0  0  0  0  0  0  0
  -86.8796   32.0748    0.0908 O   0  0  0  0  0  0  0  0  0  0  0  0
  -85.3077   33.2508   -2.4620 H   0  0  0  0  0  0  0  0  0  0  0  0
  -84.3539   32.9773   -0.5624 C   0  0  0  0  0  0  0  0  0  0  0  0
  -84.4641   32.0442    0.5552 C   0  0  0  0  0  0  0  0  0  0  0  0
  -83.5983   30.7781    0.4609 C   0  0  0  0  0  0  0  0  0  0  0  0
  -84.5940   29.7383    0.5565 N   0  0  0  0  0  0  0  0  0  0  0  0
  -85.5358   30.3005    0.6354 H   0  0  0  0  0  0  0  0  0  0  0  0
  -83.0674   28.9561    2.1275 C   0  0  0  0  0  0  0  0  0  0  0  0
  -84.4755   28.9222    1.6586 N   0  0  0  0  0  0  0  0  0  0  0  0
  -85.3309   29.2700    2.7810 C   0  0  0  0  0  0  0  0  0  0  0  0
 32 33  1  0  0  0
 33 34  1  0  0  0
 33 30  1  0  0  0
 30 29  1  0  0  0
 29 28  1  0  0  0
 28 27  1  0  0  0
 27 23  1  0  0  0
 23 24  1  0  0  0
 24 25  2  0  0  0
 24  1  1  0  0  0
  1  2  2  0  0  0
  2  3  1  0  0  0
  3  4  1  0  0  0
  4  5  2  0  0  0
  5  6  1  0  0  0
  6  7  2  0  0  0
  7  8  1  0  0  0
  8  9  2  0  0  0
  7 11  1  0  0  0
 11 12  2  0  0  0
 12 13  1  0  0  0
 13 14  2  0  0  0
 14 15  1  0  0  0
 15 16  2  0  0  0
  2 17  1  0  0  0
 17 18  2  0  0  0
 18 19  1  0  0  0
 19 20  2  0  0  0
 20 21  1  0  0  0
 21 22  2  0  0  0
  9  1  1  0  0  0
 16 11  1  0  0  0
 22 17  1  0  0  0
  9  4  1  0  0  0
 30 31  1  0  0  0
 23 26  1  0  0  0
  3 10  1  0  0  0
M  END
> <minimizedAffinity>
-7.42973

> <CNNscore>
0.1600696295

> <CNNaffinity>
6.2098450661

> <CNN_VS>
0.9940075874

> <CNNaffinity_variance>
0.2288564742

$$$$
[H]c1c([H])c([H])c(-c2c([H])c([H])c3c(c2[H])c(C(=O)N([H])C([H])([H])C([H])([H])C([H])([H])N([H])N(C([H])([H])[H])C([H])([H])[H])c(-c2c([H])c([H])c([H])c([H])c2[H])n3[H])c([H])c1[H]


 34 37  0  0  0  0  0  0  0  0999 V2000
  -87.0267   31.5242   -1.0085 C   0  0  0  0  0  0  0  0  0  0  0  0
  -85.8107   31.9872   -0.4722 C   0  0  0  0  0  0  0  0  0  0  0  0
  -85.6600   33.2171   -0.9786 N   0  0  0  0  0  0  0  0  0  0  0  0
  -86.7000   33.5372   -1.7884 C   0  0  0  0  0  0  0  0  0  0  0  0
  -86.9507   34.6852   -2.4927 C   0  0  0  0  0  0  0  0  0  0  0  0
  -88.1006   34.7485   -3.2322 C   0  0  0  0  0  0  0  0  0  0  0  0
  -89.0292   33.6982   -3.2962 C   0  0  0  0  0  0  0  0  0  0  0  0
  -88.7449   32.5736   -2.5758 C   0  0  0  0  0  0  0  0  0  0  0  0
  -87.5887   32.4611   -1.8143 C   0  0  0  0  0  0  0  0  0  0  0  0
  -84.8427   33.8409   -0.7825 H   0  0  0  0  0  0  0  0  0  0  0  0
  -90.2254   33.8542   -4.1017 C   0  0  0  0  0  0  0  0  0  0  0  0
  -90.6815   35.1376   -4.4073 C   0  0  0  0  0  0  0  0  0  0  0  0
  -91.8818   35.3168   -5.1519 C   0  0  0  0  0  0  0  0  0  0  0  0
  -92.6125   34.2646   -5.5781 C   0  0  0  0  0  0  0  0  0  0  0  0
  -92.1529   32.9906   -5.2752 C   0  0  0  0  0  0  0  0  0  0  0  0
  -90.9910   32.7968   -4.5576 C   0  0  0  0  0  0  0  0  0  0  0  0
  -84.9415   31.2292    0.4067 C   0  0  0  0  0  0  0  0  0  0  0  0
  -83.6573   30.9339    0.0908 C   0  0  0  0  0  0  0  0  0  0  0  0
  -82.8568   30.2386    1.0007 C   0  0  0  0  0  0  0  0  0  0  0  0
  -83.3870   29.8589    2.2170 C   0  0  0  0  0  0  0  0  0  0  0  0
  -84.7047   30.1748    2.5007 C   0  0  0  0  0  0  0  0  0  0  0  0
  -85.4914   30.8509    1.6253 C   0  0  0  0  0  0  0  0  0  0  0  0
  -86.9693   28.9786   -1.0505 N   0  0  0  0  0  0  0  0  0  0  0  0
  -87.4957   30.2032   -0.6438 C   0  0  0  0  0  0  0  0  0  0  0  0
  -88.4991   30.1815    0.1490 O   0  0  0  0  0  0  0  0  0  0  0  0
  -86.1697   28.9708   -1.7162 H   0  0  0  0  0  0  0  0  0  0  0  0
  -87.4861   27.7190   -0.5790 C   0  0  0  0  0  0  0  0  0  0  0  0
  -88.2142   26.9529   -1.5865 C   0  0  0  0  0  0  0  0  0  0  0  0
  -89.2801   27.7269   -2.3779 C   0  0  0  0  0  0  0  0  0  0  0  0
  -89.8933   26.6713   -3.1470 N   0  0  0  0  0  0  0  0  0  0  0  0
  -89.1521   26.4732   -3.9348 H   0  0  0  0  0  0  0  0  0  0  0  0
  -92.0532   25.8987   -3.5321 C   0  0  0  0  0  0  0  0  0  0  0  0
  -91.0882   27.0071   -3.7419 N   0  0  0  0  0  0  0  0  0  0  0  0
  -91.6993   28.2325   -3.2547 C   0  0  0  0  0  0  0  0  0  0  0  0
 32 33  1  0  0  0
 33 34  1  0  0  0
 33 30  1  0  0  0
 30 29  1  0  0  0
 29 28  1  0  0  0
 28 27  1  0  0  0
 27 23  1  0  0  0
 23 24  1  0  0  0
 24 25  2  0  0  0
 24  1  1  0  0  0
  1  2  2  0  0  0
  2  3  1  0  0  0
  3  4  1  0  0  0
  4  5  2  0  0  0
  5  6  1  0  0  0
  6  7  2  0  0  0
  7  8  1  0  0  0
  8  9  2  0  0  0
  7 11  1  0  0  0
 11 12  2  0  0  0
 12 13  1  0  0  0
 13 14  2  0  0  0
 14 15  1  0  0  0
 15 16  2  0  0  0
  2 17  1  0  0  0
 17 18  2  0  0  0
 18 19  1  0  0  0
 19 20  2  0  0  0
 20 21  1  0  0  0
 21 22  2  0  0  0
  9  1  1  0  0  0
 16 11  1  0  0  0
 22 17  1  0  0  0
  9  4  1  0  0  0
 30 31  1  0  0  0
 23 26  1  0  0  0
  3 10  1  0  0  0
M  END
> <minimizedAffinity>
-8.05897

> <CNNscore>
0.1429456025

> <CNNaffinity>
5.8975133896

> <CNN_VS>
0.8430235982

> <CNNaffinity_variance>
0.3583506942

$$$$
[H]c1c([H])c([H])c(-c2c([H])c([H])c3c(c2[H])c(C(=O)N([H])C([H])([H])C([H])([H])C([H])([H])N([H])N(C([H])([H])[H])C([H])([H])[H])c(-c2c([H])c([H])c([H])c([H])c2[H])n3[H])c([H])c1[H]


 34 37  0  0  0  0  0  0  0  0999 V2000
  -87.8856   32.9406   -3.2663 C   0  0  0  0  0  0  0  0  0  0  0  0
  -86.7200   33.6114   -2.8514 C   0  0  0  0  0  0  0  0  0  0  0  0
  -86.5867   34.6286   -3.7111 N   0  0  0  0  0  0  0  0  0  0  0  0
  -87.5902   34.6249   -4.6238 C   0  0  0  0  0  0  0  0  0  0  0  0
  -87.8430   35.4815   -5.6625 C   0  0  0  0  0  0  0  0  0  0  0  0
  -88.9507   35.2504   -6.4324 C   0  0  0  0  0  0  0  0  0  0  0  0
  -89.8344   34.1847   -6.2029 C   0  0  0  0  0  0  0  0  0  0  0  0
  -89.5499   33.3571   -5.1548 C   0  0  0  0  0  0  0  0  0  0  0  0
  -88.4354   33.5488   -4.3483 C   0  0  0  0  0  0  0  0  0  0  0  0
  -85.8055   35.3248   -3.6863 H   0  0  0  0  0  0  0  0  0  0  0  0
  -90.9880   34.0184   -7.0665 C   0  0  0  0  0  0  0  0  0  0  0  0
  -92.1648   33.4830   -6.5400 C   0  0  0  0  0  0  0  0  0  0  0  0
  -93.2935   33.2615   -7.3792 C   0  0  0  0  0  0  0  0  0  0  0  0
  -93.2623   33.5538   -8.6969 C   0  0  0  0  0  0  0  0  0  0  0  0
  -92.0915   34.0896   -9.2148 C   0  0  0  0  0  0  0  0  0  0  0  0
  -90.9888   34.3142   -8.4173 C   0  0  0  0  0  0  0  0  0  0  0  0
  -85.8745   33.2119   -1.7432 C   0  0  0  0  0  0  0  0  0  0  0  0
  -84.5643   32.9018   -1.8958 C   0  0  0  0  0  0  0  0  0  0  0  0
  -83.7915   32.5679   -0.7808 C   0  0  0  0  0  0  0  0  0  0  0  0
  -84.3755   32.5578    0.4696 C   0  0  0  0  0  0  0  0  0  0  0  0
  -85.7180   32.8757    0.5839 C   0  0  0  0  0  0  0  0  0  0  0  0
  -86.4783   33.2029   -0.4919 C   0  0  0  0  0  0  0  0  0  0  0  0
  -87.8075   30.4841   -2.5994 N   0  0  0  0  0  0  0  0  0  0  0  0
  -88.3252   31.7759   -2.5258 C   0  0  0  0  0  0  0  0  0  0  0  0
  -89.2900   31.9808   -1.7117 O   0  0  0  0  0  0  0  0  0  0  0  0
  -87.0399   30.2873   -3.2737 H   0  0  0  0  0  0  0  0  0  0  0  0
  -88.2903   29.4084   -1.7712 C   0  0  0  0  0  0  0  0  0  0  0  0
  -88.2107   29.6715   -0.3372 C   0  0  0  0  0  0  0  0  0  0  0  0
  -86.8125   29.5574    0.2899 C   0  0  0  0  0  0  0  0  0  0  0  0
  -86.6298   28.1268    0.3325 N   0  0  0  0  0  0  0  0  0  0  0  0
  -87.5275   27.7450   -0.1749 H   0  0  0  0  0  0  0  0  0  0  0  0
  -87.6017   26.5182    1.7031 C   0  0  0  0  0  0  0  0  0  0  0  0
  -86.5767   27.5870    1.5976 N   0  0  0  0  0  0  0  0  0  0  0  0
  -85.2937   27.0172    1.9739 C   0  0  0  0  0  0  0  0  0  0  0  0
 32 33  1  0  0  0
 33 34  1  0  0  0
 33 30  1  0  0  0
 30 29  1  0  0  0
 29 28  1  0  0  0
 28 27  1  0  0  0
 27 23  1  0  0  0
 23 24  1  0  0  0
 24 25  2  0  0  0
 24  1  1  0  0  0
  1  2  2  0  0  0
  2  3  1  0  0  0
  3  4  1  0  0  0
  4  5  2  0  0  0
  5  6  1  0  0  0
  6  7  2  0  0  0
  7  8  1  0  0  0
  8  9  2  0  0  0
  7 11  1  0  0  0
 11 12  2  0  0  0
 12 13  1  0  0  0
 13 14  2  0  0  0
 14 15  1  0  0  0
 15 16  2  0  0  0
  2 17  1  0  0  0
 17 18  2  0  0  0
 18 19  1  0  0  0
 19 20  2  0  0  0
 20 21  1  0  0  0
 21 22  2  0  0  0
  9  1  1  0  0  0
 16 11  1  0  0  0
 22 17  1  0  0  0
  9  4  1  0  0  0
 30 31  1  0  0  0
 23 26  1  0  0  0
  3 10  1  0  0  0
M  END
> <minimizedAffinity>
-6.79988

> <CNNscore>
0.1380315870

> <CNNaffinity>
5.8135352135

> <CNN_VS>
0.8024514914

> <CNNaffinity_variance>
0.1257339418

$$$$
[H]c1c(Oc2c([H])c([H])c(N([H])S(=O)(=O)C([H])([H])[H])c([H])c2[H])nc(N([H])c2c([H])c([H])c3c(c2[H])c([H])c([H])n3[H])nc1N([H])[C@]1([H])C([H])([H])N(C(=O)C2([H])C([H])([H])C([H])([H])N(C([H])([H])C([H])([H])[H])C([H])([H])C2([H])[H])C([H])([H])C([H])([H])C1([H])[H]


 49 54  0  0  0  0  0  0  0  0999 V2000
  -86.8661   33.6925   -3.2590 C   0  0  0  0  0  0  0  0  0  0  0  0
  -87.5922   32.5795   -3.6420 C   0  0  0  0  0  0  0  0  0  0  0  0
  -87.7052   31.5311   -2.7335 C   0  0  0  0  0  0  0  0  0  0  0  0
  -87.1033   31.6659   -1.5439 N   0  0  0  0  0  0  0  0  0  0  0  0
  -86.3994   32.7160   -1.1419 C   0  0  0  0  0  0  0  0  0  0  0  0
  -86.2814   33.7556   -2.0272 N   0  0  0  0  0  0  0  0  0  0  0  0
  -86.7158   34.7623   -4.1647 N   0  0  0  0  0  0  0  0  0  0  0  0
  -85.9046   34.6954   -4.8529 H   0  0  0  0  0  0  0  0  0  0  0  0
  -90.9451   34.8591   -5.5030 C   0  0  0  0  0  0  0  0  0  0  0  0
  -91.1404   33.9284   -4.7236 O   0  0  0  0  0  0  0  0  0  0  0  0
  -89.8376   35.7601   -5.2505 N   0  0  0  0  0  0  0  0  0  0  0  0
  -89.6339   36.8323   -6.1710 C   0  0  0  0  0  0  0  0  0  0  0  0
  -88.5425   37.7365   -5.6368 C   0  0  0  0  0  0  0  0  0  0  0  0
  -87.3342   36.8009   -5.4246 C   0  0  0  0  0  0  0  0  0  0  0  0
  -87.5554   35.9214   -4.2444 C   0  0  0  0  0  0  0  0  0  0  0  0
  -89.0040   35.5832   -4.0952 C   0  0  0  0  0  0  0  0  0  0  0  0
  -93.5883   35.0045   -8.8020 N   0  0  0  0  0  0  0  0  0  0  0  0
  -94.0506   35.2469   -7.4978 C   0  0  0  0  0  0  0  0  0  0  0  0
  -93.2469   34.6856   -6.3684 C   0  0  0  0  0  0  0  0  0  0  0  0
  -91.7842   35.0922   -6.6745 C   0  0  0  0  0  0  0  0  0  0  0  0
  -91.4447   34.2178   -7.8738 C   0  0  0  0  0  0  0  0  0  0  0  0
  -92.2117   34.8145   -9.0321 C   0  0  0  0  0  0  0  0  0  0  0  0
  -95.8823   35.1671   -9.6601 C   0  0  0  0  0  0  0  0  0  0  0  0
  -94.5064   34.5545   -9.7775 C   0  0  0  0  0  0  0  0  0  0  0  0
  -85.7640   32.7795    0.1188 N   0  0  0  0  0  0  0  0  0  0  0  0
  -85.9653   33.6663    0.7187 H   0  0  0  0  0  0  0  0  0  0  0  0
  -84.9104   31.8186    0.6567 C   0  0  0  0  0  0  0  0  0  0  0  0
  -83.5192   31.9509    0.4721 C   0  0  0  0  0  0  0  0  0  0  0  0
  -82.6190   31.0065    0.9382 C   0  0  0  0  0  0  0  0  0  0  0  0
  -83.1098   29.9011    1.6057 C   0  0  0  0  0  0  0  0  0  0  0  0
  -82.4672   28.8403    2.1498 N   0  0  0  0  0  0  0  0  0  0  0  0
  -83.3702   27.9931    2.6973 C   0  0  0  0  0  0  0  0  0  0  0  0
  -84.6011   28.5461    2.4857 C   0  0  0  0  0  0  0  0  0  0  0  0
  -84.4357   29.7222    1.8123 C   0  0  0  0  0  0  0  0  0  0  0  0
  -85.3052   30.7024    1.3225 C   0  0  0  0  0  0  0  0  0  0  0  0
  -81.4456   28.6917    2.1501 H   0  0  0  0  0  0  0  0  0  0  0  0
  -88.4242   30.3972   -3.0789 O   0  0  0  0  0  0  0  0  0  0  0  0
  -88.5256   29.3814   -2.1462 C   0  0  0  0  0  0  0  0  0  0  0  0
  -87.4989   28.4851   -1.9928 C   0  0  0  0  0  0  0  0  0  0  0  0
  -87.5796   27.4529   -1.0574 C   0  0  0  0  0  0  0  0  0  0  0  0
  -88.6862   27.3007   -0.2627 C   0  0  0  0  0  0  0  0  0  0  0  0
  -89.7369   28.2052   -0.4097 C   0  0  0  0  0  0  0  0  0  0  0  0
  -89.6331   29.2073   -1.3327 C   0  0  0  0  0  0  0  0  0  0  0  0
  -88.7591   26.2644    0.6881 N   0  0  0  0  0  0  0  0  0  0  0  0
  -89.0990   25.3312    0.3222 H   0  0  0  0  0  0  0  0  0  0  0  0
  -88.3490   26.4391    2.3168 S   0  0  0  0  0  0  0  0  0  0  0  0
  -89.2977   25.4932    3.4555 C   0  0  0  0  0  0  0  0  0  0  0  0
  -86.8718   26.1342    2.5094 O   0  0  0  0  0  0  0  0  0  0  0  0
  -88.4783   27.8939    2.7764 O   0  0  0  0  0  0  0  0  0  0  0  0
 23 24  1  0  0  0
 24 17  1  0  0  0
 17 18  1  0  0  0
 18 19  1  0  0  0
 19 20  1  0  0  0
 20 21  1  0  0  0
 21 22  1  0  0  0
 20  9  1  0  0  0
  9 10  2  0  0  0
  9 11  1  0  0  0
 11 12  1  0  0  0
 12 13  1  0  0  0
 13 14  1  0  0  0
 14 15  1  0  0  0
 15 16  1  0  0  0
 15  7  1  0  0  0
  7  1  1  0  0  0
  1  2  2  0  0  0
  2  3  1  0  0  0
  3 37  1  0  0  0
 37 38  1  0  0  0
 38 39  2  0  0  0
 39 40  1  0  0  0
 40 41  2  0  0  0
 41 44  1  0  0  0
 44 46  1  0  0  0
 46 47  1  0  0  0
 46 48  2  0  0  0
 46 49  2  0  0  0
 41 42  1  0  0  0
 42 43  2  0  0  0
  3  4  2  0  0  0
  4  5  1  0  0  0
  5 25  1  0  0  0
 25 27  1  0  0  0
 27 28  2  0  0  0
 28 29  1  0  0  0
 29 30  2  0  0  0
 30 31  1  0  0  0
 31 32  1  0  0  0
 32 33  2  0  0  0
 33 34  1  0  0  0
 34 35  2  0  0  0
  5  6  2  0  0  0
 22 17  1  0  0  0
 16 11  1  0  0  0
  6  1  1  0  0  0
 43 38  1  0  0  0
 35 27  1  0  0  0
 34 30  1  0  0  0
  7  8  1  0  0  0
 44 45  1  0  0  0
 25 26  1  0  0  0
 31 36  1  0  0  0
M  END
> <minimizedAffinity>
-9.71057

> <CNNscore>
0.2315333784

> <CNNaffinity>
7.4301514626

> <CNN_VS>
1.7203280926

> <CNNaffinity_variance>
0.2523425817

$$$$
[H]c1c(Oc2c([H])c([H])c(N([H])S(=O)(=O)C([H])([H])[H])c([H])c2[H])nc(N([H])c2c([H])c([H])c3c(c2[H])c([H])c([H])n3[H])nc1N([H])[C@]1([H])C([H])([H])N(C(=O)C2([H])C([H])([H])C([H])([H])N(C([H])([H])C([H])([H])[H])C([H])([H])C2([H])[H])C([H])([H])C([H])([H])C1([H])[H]


 49 54  0  0  0  0  0  0  0  0999 V2000
  -88.4596   32.0341   -2.1911 C   0  0  0  0  0  0  0  0  0  0  0  0
  -87.2323   32.2065   -1.5773 C   0  0  0  0  0  0  0  0  0  0  0  0
  -86.6198   33.4519   -1.6840 C   0  0  0  0  0  0  0  0  0  0  0  0
  -87.2581   34.4063   -2.3748 N   0  0  0  0  0  0  0  0  0  0  0  0
  -88.4334   34.2782   -2.9763 C   0  0  0  0  0  0  0  0  0  0  0  0
  -89.0473   33.0568   -2.8780 N   0  0  0  0  0  0  0  0  0  0  0  0
  -89.0956   30.7780   -2.1189 N   0  0  0  0  0  0  0  0  0  0  0  0
  -90.0404   30.6922   -2.6049 H   0  0  0  0  0  0  0  0  0  0  0  0
  -90.5748   26.6223   -2.5974 C   0  0  0  0  0  0  0  0  0  0  0  0
  -90.4959   26.8078   -3.8103 O   0  0  0  0  0  0  0  0  0  0  0  0
  -89.7358   27.4095   -1.7150 N   0  0  0  0  0  0  0  0  0  0  0  0
  -89.8471   27.1734   -0.3114 C   0  0  0  0  0  0  0  0  0  0  0  0
  -88.7792   27.9724    0.4065 C   0  0  0  0  0  0  0  0  0  0  0  0
  -89.0155   29.4284   -0.0459 C   0  0  0  0  0  0  0  0  0  0  0  0
  -88.5845   29.6130   -1.4585 C   0  0  0  0  0  0  0  0  0  0  0  0
  -88.8104   28.3665   -2.2525 C   0  0  0  0  0  0  0  0  0  0  0  0
  -93.1528   23.4918   -1.3954 N   0  0  0  0  0  0  0  0  0  0  0  0
  -91.7577   23.3318   -1.3535 C   0  0  0  0  0  0  0  0  0  0  0  0
  -90.9383   24.2097   -2.2450 C   0  0  0  0  0  0  0  0  0  0  0  0
  -91.4816   25.6408   -2.0098 C   0  0  0  0  0  0  0  0  0  0  0  0
  -92.8542   25.5827   -2.6660 C   0  0  0  0  0  0  0  0  0  0  0  0
  -93.7035   24.7415   -1.7400 C   0  0  0  0  0  0  0  0  0  0  0  0
  -93.4422   21.1439   -0.7406 C   0  0  0  0  0  0  0  0  0  0  0  0
  -93.9675   22.3416   -1.4966 C   0  0  0  0  0  0  0  0  0  0  0  0
  -89.0369   35.3203   -3.7160 N   0  0  0  0  0  0  0  0  0  0  0  0
  -90.1256   35.3187   -3.7556 H   0  0  0  0  0  0  0  0  0  0  0  0
  -88.3696   36.3387   -4.3933 C   0  0  0  0  0  0  0  0  0  0  0  0
  -88.0172   37.5135   -3.6986 C   0  0  0  0  0  0  0  0  0  0  0  0
  -87.3967   38.5833   -4.3232 C   0  0  0  0  0  0  0  0  0  0  0  0
  -87.1173   38.4869   -5.6727 C   0  0  0  0  0  0  0  0  0  0  0  0
  -86.5350   39.3690   -6.5195 N   0  0  0  0  0  0  0  0  0  0  0  0
  -86.4785   38.8366   -7.7630 C   0  0  0  0  0  0  0  0  0  0  0  0
  -87.0401   37.5942   -7.6806 C   0  0  0  0  0  0  0  0  0  0  0  0
  -87.4325   37.3829   -6.3901 C   0  0  0  0  0  0  0  0  0  0  0  0
  -88.0586   36.3295   -5.7155 C   0  0  0  0  0  0  0  0  0  0  0  0
  -86.1862   40.3066   -6.2646 H   0  0  0  0  0  0  0  0  0  0  0  0
  -85.3887   33.6656   -1.0835 O   0  0  0  0  0  0  0  0  0  0  0  0
  -84.8345   32.6331   -0.3493 C   0  0  0  0  0  0  0  0  0  0  0  0
  -83.5685   32.1899   -0.6354 C   0  0  0  0  0  0  0  0  0  0  0  0
  -82.9893   31.1501    0.0929 C   0  0  0  0  0  0  0  0  0  0  0  0
  -83.6658   30.5381    1.1163 C   0  0  0  0  0  0  0  0  0  0  0  0
  -84.9538   30.9794    1.4162 C   0  0  0  0  0  0  0  0  0  0  0  0
  -85.4982   31.9995    0.6882 C   0  0  0  0  0  0  0  0  0  0  0  0
  -83.0735   29.4966    1.8563 N   0  0  0  0  0  0  0  0  0  0  0  0
  -82.0183   29.5317    1.9312 H   0  0  0  0  0  0  0  0  0  0  0  0
  -83.9357   28.2463    2.5943 S   0  0  0  0  0  0  0  0  0  0  0  0
  -85.2103   27.5152    1.6286 C   0  0  0  0  0  0  0  0  0  0  0  0
  -82.9729   27.1678    3.0656 O   0  0  0  0  0  0  0  0  0  0  0  0
  -84.6105   28.7147    3.8864 O   0  0  0  0  0  0  0  0  0  0  0  0
 23 24  1  0  0  0
 24 17  1  0  0  0
 17 18  1  0  0  0
 18 19  1  0  0  0
 19 20  1  0  0  0
 20 21  1  0  0  0
 21 22  1  0  0  0
 20  9  1  0  0  0
  9 10  2  0  0  0
  9 11  1  0  0  0
 11 12  1  0  0  0
 12 13  1  0  0  0
 13 14  1  0  0  0
 14 15  1  0  0  0
 15 16  1  0  0  0
 15  7  1  0  0  0
  7  1  1  0  0  0
  1  2  2  0  0  0
  2  3  1  0  0  0
  3 37  1  0  0  0
 37 38  1  0  0  0
 38 39  2  0  0  0
 39 40  1  0  0  0
 40 41  2  0  0  0
 41 44  1  0  0  0
 44 46  1  0  0  0
 46 47  1  0  0  0
 46 48  2  0  0  0
 46 49  2  0  0  0
 41 42  1  0  0  0
 42 43  2  0  0  0
  3  4  2  0  0  0
  4  5  1  0  0  0
  5 25  1  0  0  0
 25 27  1  0  0  0
 27 28  2  0  0  0
 28 29  1  0  0  0
 29 30  2  0  0  0
 30 31  1  0  0  0
 31 32  1  0  0  0
 32 33  2  0  0  0
 33 34  1  0  0  0
 34 35  2  0  0  0
  5  6  2  0  0  0
 22 17  1  0  0  0
 16 11  1  0  0  0
  6  1  1  0  0  0
 43 38  1  0  0  0
 35 27  1  0  0  0
 34 30  1  0  0  0
  7  8  1  0  0  0
 44 45  1  0  0  0
 25 26  1  0  0  0
 31 36  1  0  0  0
M  END
> <minimizedAffinity>
-9.05334

> <CNNscore>
0.0951372311

> <CNNaffinity>
7.3110160828

> <CNN_VS>
0.6955498457

> <CNNaffinity_variance>
0.1481531411

$$$$
[H]c1c(Oc2c([H])c([H])c(N([H])S(=O)(=O)C([H])([H])[H])c([H])c2[H])nc(N([H])c2c([H])c([H])c3c(c2[H])c([H])c([H])n3[H])nc1N([H])[C@]1([H])C([H])([H])N(C(=O)C2([H])C([H])([H])C([H])([H])N(C([H])([H])C([H])([H])[H])C([H])([H])C2([H])[H])C([H])([H])C([H])([H])C1([H])[H]


 49 54  0  0  0  0  0  0  0  0999 V2000
  -88.7371   26.3495    1.0684 C   0  0  0  0  0  0  0  0  0  0  0  0
  -89.5664   27.3290    0.5531 C   0  0  0  0  0  0  0  0  0  0  0  0
  -89.0457   28.6111    0.4036 C   0  0  0  0  0  0  0  0  0  0  0  0
  -87.7727   28.8162    0.7683 N   0  0  0  0  0  0  0  0  0  0  0  0
  -86.9485   27.9036    1.2658 C   0  0  0  0  0  0  0  0  0  0  0  0
  -87.4491   26.6368    1.4172 N   0  0  0  0  0  0  0  0  0  0  0  0
  -89.2416   25.0459    1.2515 N   0  0  0  0  0  0  0  0  0  0  0  0
  -88.9385   24.5362    2.1373 H   0  0  0  0  0  0  0  0  0  0  0  0
  -90.8309   26.5802   -2.5964 C   0  0  0  0  0  0  0  0  0  0  0  0
  -89.6709   26.8748   -2.8782 O   0  0  0  0  0  0  0  0  0  0  0  0
  -91.0682   25.5166   -1.6402 N   0  0  0  0  0  0  0  0  0  0  0  0
  -92.4244   25.1947   -1.3316 C   0  0  0  0  0  0  0  0  0  0  0  0
  -92.4479   23.9630   -0.4504 C   0  0  0  0  0  0  0  0  0  0  0  0
  -91.5591   24.3327    0.7553 C   0  0  0  0  0  0  0  0  0  0  0  0
  -90.1242   24.3525    0.3600 C   0  0  0  0  0  0  0  0  0  0  0  0
  -89.9674   24.8031   -1.0569 C   0  0  0  0  0  0  0  0  0  0  0  0
  -93.8225   28.6366   -4.7673 N   0  0  0  0  0  0  0  0  0  0  0  0
  -93.5518   27.2816   -5.0211 C   0  0  0  0  0  0  0  0  0  0  0  0
  -92.2009   26.7673   -4.6373 C   0  0  0  0  0  0  0  0  0  0  0  0
  -91.9799   27.2607   -3.1861 C   0  0  0  0  0  0  0  0  0  0  0  0
  -91.7930   28.7600   -3.3741 C   0  0  0  0  0  0  0  0  0  0  0  0
  -93.1674   29.2943   -3.7080 C   0  0  0  0  0  0  0  0  0  0  0  0
  -93.7520   30.7604   -5.9960 C   0  0  0  0  0  0  0  0  0  0  0  0
  -94.4103   29.4166   -5.7886 C   0  0  0  0  0  0  0  0  0  0  0  0
  -85.6231   28.1965    1.6590 N   0  0  0  0  0  0  0  0  0  0  0  0
  -85.1511   27.4870    2.3378 H   0  0  0  0  0  0  0  0  0  0  0  0
  -84.8743   29.3018    1.2605 C   0  0  0  0  0  0  0  0  0  0  0  0
  -83.5342   29.4156    1.6825 C   0  0  0  0  0  0  0  0  0  0  0  0
  -82.7495   30.5118    1.3629 C   0  0  0  0  0  0  0  0  0  0  0  0
  -83.3070   31.5229    0.6045 C   0  0  0  0  0  0  0  0  0  0  0  0
  -82.7794   32.6892    0.1623 N   0  0  0  0  0  0  0  0  0  0  0  0
  -83.7111   33.3711   -0.5446 C   0  0  0  0  0  0  0  0  0  0  0  0
  -84.8422   32.6053   -0.5383 C   0  0  0  0  0  0  0  0  0  0  0  0
  -84.5884   31.4669    0.1713 C   0  0  0  0  0  0  0  0  0  0  0  0
  -85.3410   30.3405    0.5200 C   0  0  0  0  0  0  0  0  0  0  0  0
  -81.8156   33.0167    0.3345 H   0  0  0  0  0  0  0  0  0  0  0  0
  -89.8445   29.6215   -0.1090 O   0  0  0  0  0  0  0  0  0  0  0  0
  -89.2493   30.5793   -0.9093 C   0  0  0  0  0  0  0  0  0  0  0  0
  -88.7083   30.2239   -2.1185 C   0  0  0  0  0  0  0  0  0  0  0  0
  -88.1036   31.1739   -2.9424 C   0  0  0  0  0  0  0  0  0  0  0  0
  -88.0301   32.4914   -2.5707 C   0  0  0  0  0  0  0  0  0  0  0  0
  -88.5759   32.8649   -1.3433 C   0  0  0  0  0  0  0  0  0  0  0  0
  -89.1627   31.9156   -0.5552 C   0  0  0  0  0  0  0  0  0  0  0  0
  -87.4290   33.4491   -3.4101 N   0  0  0  0  0  0  0  0  0  0  0  0
  -86.3713   33.4800   -3.3846 H   0  0  0  0  0  0  0  0  0  0  0  0
  -88.2852   34.5071   -4.4096 S   0  0  0  0  0  0  0  0  0  0  0  0
  -89.1539   35.8016   -3.5964 C   0  0  0  0  0  0  0  0  0  0  0  0
  -87.3490   35.0994   -5.4513 O   0  0  0  0  0  0  0  0  0  0  0  0
  -89.3317   33.7668   -5.2469 O   0  0  0  0  0  0  0  0  0  0  0  0
 23 24  1  0  0  0
 24 17  1  0  0  0
 17 18  1  0  0  0
 18 19  1  0  0  0
 19 20  1  0  0  0
 20 21  1  0  0  0
 21 22  1  0  0  0
 20  9  1  0  0  0
  9 10  2  0  0  0
  9 11  1  0  0  0
 11 12  1  0  0  0
 12 13  1  0  0  0
 13 14  1  0  0  0
 14 15  1  0  0  0
 15 16  1  0  0  0
 15  7  1  0  0  0
  7  1  1  0  0  0
  1  2  2  0  0  0
  2  3  1  0  0  0
  3 37  1  0  0  0
 37 38  1  0  0  0
 38 39  2  0  0  0
 39 40  1  0  0  0
 40 41  2  0  0  0
 41 44  1  0  0  0
 44 46  1  0  0  0
 46 47  1  0  0  0
 46 48  2  0  0  0
 46 49  2  0  0  0
 41 42  1  0  0  0
 42 43  2  0  0  0
  3  4  2  0  0  0
  4  5  1  0  0  0
  5 25  1  0  0  0
 25 27  1  0  0  0
 27 28  2  0  0  0
 28 29  1  0  0  0
 29 30  2  0  0  0
 30 31  1  0  0  0
 31 32  1  0  0  0
 32 33  2  0  0  0
 33 34  1  0  0  0
 34 35  2  0  0  0
  5  6  2  0  0  0
 22 17  1  0  0  0
 16 11  1  0  0  0
  6  1  1  0  0  0
 43 38  1  0  0  0
 35 27  1  0  0  0
 34 30  1  0  0  0
  7  8  1  0  0  0
 44 45  1  0  0  0
 25 26  1  0  0  0
 31 36  1  0  0  0
M  END
> <minimizedAffinity>
-9.83136

> <CNNscore>
0.0807232633

> <CNNaffinity>
7.2160558701

> <CNN_VS>
0.5825035572

> <CNNaffinity_variance>
0.6205226183

$$$$
[H]c1c(Oc2c([H])c([H])c(N([H])S(=O)(=O)C([H])([H])[H])c([H])c2[H])nc(N([H])c2c([H])c([H])c3c(c2[H])c([H])c([H])n3[H])nc1N([H])[C@]1([H])C([H])([H])N(C(=O)C2([H])C([H])([H])C([H])([H])N(C([H])([H])C([H])([H])[H])C([H])([H])C2([H])[H])C([H])([H])C([H])([H])C1([H])[H]


 49 54  0  0  0  0  0  0  0  0999 V2000
  -85.6397   32.6495   -0.4667 C   0  0  0  0  0  0  0  0  0  0  0  0
  -86.8862   32.2084   -0.0615 C   0  0  0  0  0  0  0  0  0  0  0  0
  -87.9781   32.5069   -0.8715 C   0  0  0  0  0  0  0  0  0  0  0  0
  -87.7529   33.2033   -1.9941 N   0  0  0  0  0  0  0  0  0  0  0  0
  -86.5740   33.6428   -2.4145 C   0  0  0  0  0  0  0  0  0  0  0  0
  -85.4907   33.3546   -1.6260 N   0  0  0  0  0  0  0  0  0  0  0  0
  -84.5172   32.3811    0.3427 N   0  0  0  0  0  0  0  0  0  0  0  0
  -84.0668   33.2168    0.8275 H   0  0  0  0  0  0  0  0  0  0  0  0
  -86.5188   28.4584   -0.1987 C   0  0  0  0  0  0  0  0  0  0  0  0
  -86.8593   28.8637   -1.3085 O   0  0  0  0  0  0  0  0  0  0  0  0
  -85.3382   29.0285    0.4204 N   0  0  0  0  0  0  0  0  0  0  0  0
  -84.9652   28.5395    1.7088 C   0  0  0  0  0  0  0  0  0  0  0  0
  -83.6298   29.1416    2.0942 C   0  0  0  0  0  0  0  0  0  0  0  0
  -83.8500   30.6656    1.9972 C   0  0  0  0  0  0  0  0  0  0  0  0
  -83.9355   31.0915    0.5736 C   0  0  0  0  0  0  0  0  0  0  0  0
  -84.5668   30.0268   -0.2648 C   0  0  0  0  0  0  0  0  0  0  0  0
  -89.1227   25.6461    1.5907 N   0  0  0  0  0  0  0  0  0  0  0  0
  -88.5893   25.4208    0.3107 C   0  0  0  0  0  0  0  0  0  0  0  0
  -88.1352   26.6163   -0.4647 C   0  0  0  0  0  0  0  0  0  0  0  0
  -87.2578   27.4260    0.5217 C   0  0  0  0  0  0  0  0  0  0  0  0
  -88.2844   27.9626    1.5097 C   0  0  0  0  0  0  0  0  0  0  0  0
  -88.7066   26.7677    2.3342 C   0  0  0  0  0  0  0  0  0  0  0  0
  -91.2078   24.6443    0.7699 C   0  0  0  0  0  0  0  0  0  0  0  0
  -90.3328   25.0089    1.9462 C   0  0  0  0  0  0  0  0  0  0  0  0
  -86.4121   34.3999   -3.5968 N   0  0  0  0  0  0  0  0  0  0  0  0
  -85.4524   34.3071   -4.1039 H   0  0  0  0  0  0  0  0  0  0  0  0
  -87.3612   35.2470   -4.1650 C   0  0  0  0  0  0  0  0  0  0  0  0
  -87.7659   36.3997   -3.4618 C   0  0  0  0  0  0  0  0  0  0  0  0
  -88.7400   37.2573   -3.9472 C   0  0  0  0  0  0  0  0  0  0  0  0
  -89.3290   36.9655   -5.1622 C   0  0  0  0  0  0  0  0  0  0  0  0
  -90.2945   37.6156   -5.8547 N   0  0  0  0  0  0  0  0  0  0  0  0
  -90.5598   36.9475   -7.0019 C   0  0  0  0  0  0  0  0  0  0  0  0
  -89.7364   35.8577   -7.0173 C   0  0  0  0  0  0  0  0  0  0  0  0
  -88.9795   35.8729   -5.8811 C   0  0  0  0  0  0  0  0  0  0  0  0
  -87.9921   35.0369   -5.3494 C   0  0  0  0  0  0  0  0  0  0  0  0
  -90.7629   38.4869   -5.5595 H   0  0  0  0  0  0  0  0  0  0  0  0
  -89.2449   32.0833   -0.5006 O   0  0  0  0  0  0  0  0  0  0  0  0
  -89.7269   30.9108   -1.0528 C   0  0  0  0  0  0  0  0  0  0  0  0
  -90.5047   30.0671   -0.3016 C   0  0  0  0  0  0  0  0  0  0  0  0
  -91.0024   28.8794   -0.8386 C   0  0  0  0  0  0  0  0  0  0  0  0
  -90.7302   28.5170   -2.1325 C   0  0  0  0  0  0  0  0  0  0  0  0
  -89.9400   29.3661   -2.9060 C   0  0  0  0  0  0  0  0  0  0  0  0
  -89.4652   30.5235   -2.3566 C   0  0  0  0  0  0  0  0  0  0  0  0
  -91.2437   27.3229   -2.6743 N   0  0  0  0  0  0  0  0  0  0  0  0
  -90.7715   26.4331   -2.3493 H   0  0  0  0  0  0  0  0  0  0  0  0
  -92.5222   27.2520   -3.7751 S   0  0  0  0  0  0  0  0  0  0  0  0
  -93.5982   25.8703   -3.6177 C   0  0  0  0  0  0  0  0  0  0  0  0
  -93.3318   28.5373   -3.7045 O   0  0  0  0  0  0  0  0  0  0  0  0
  -92.0188   27.2238   -5.2207 O   0  0  0  0  0  0  0  0  0  0  0  0
 23 24  1  0  0  0
 24 17  1  0  0  0
 17 18  1  0  0  0
 18 19  1  0  0  0
 19 20  1  0  0  0
 20 21  1  0  0  0
 21 22  1  0  0  0
 20  9  1  0  0  0
  9 10  2  0  0  0
  9 11  1  0  0  0
 11 12  1  0  0  0
 12 13  1  0  0  0
 13 14  1  0  0  0
 14 15  1  0  0  0
 15 16  1  0  0  0
 15  7  1  0  0  0
  7  1  1  0  0  0
  1  2  2  0  0  0
  2  3  1  0  0  0
  3 37  1  0  0  0
 37 38  1  0  0  0
 38 39  2  0  0  0
 39 40  1  0  0  0
 40 41  2  0  0  0
 41 44  1  0  0  0
 44 46  1  0  0  0
 46 47  1  0  0  0
 46 48  2  0  0  0
 46 49  2  0  0  0
 41 42  1  0  0  0
 42 43  2  0  0  0
  3  4  2  0  0  0
  4  5  1  0  0  0
  5 25  1  0  0  0
 25 27  1  0  0  0
 27 28  2  0  0  0
 28 29  1  0  0  0
 29 30  2  0  0  0
 30 31  1  0  0  0
 31 32  1  0  0  0
 32 33  2  0  0  0
 33 34  1  0  0  0
 34 35  2  0  0  0
  5  6  2  0  0  0
 22 17  1  0  0  0
 16 11  1  0  0  0
  6  1  1  0  0  0
 43 38  1  0  0  0
 35 27  1  0  0  0
 34 30  1  0  0  0
  7  8  1  0  0  0
 44 45  1  0  0  0
 25 26  1  0  0  0
 31 36  1  0  0  0
M  END
> <minimizedAffinity>
-9.38933

> <CNNscore>
0.0788080692

> <CNNaffinity>
7.3432683945

> <CNN_VS>
0.5787088275

> <CNNaffinity_variance>
0.3621462584

$$$$
[H]c1c(Oc2c([H])c([H])c(N([H])S(=O)(=O)C([H])([H])[H])c([H])c2[H])nc(N([H])c2c([H])c([H])c3c(c2[H])c([H])c([H])n3[H])nc1N([H])[C@]1([H])C([H])([H])N(C(=O)C2([H])C([H])([H])C([H])([H])N(C([H])([H])C([H])([H])[H])C([H])([H])C2([H])[H])C([H])([H])C([H])([H])C1([H])[H]


 49 54  0  0  0  0  0  0  0  0999 V2000
  -90.5850   31.3880   -2.9865 C   0  0  0  0  0  0  0  0  0  0  0  0
  -90.2736   30.0406   -2.9740 C   0  0  0  0  0  0  0  0  0  0  0  0
  -89.1482   29.6386   -2.2603 C   0  0  0  0  0  0  0  0  0  0  0  0
  -88.4368   30.5828   -1.6293 N   0  0  0  0  0  0  0  0  0  0  0  0
  -88.7038   31.8822   -1.6190 C   0  0  0  0  0  0  0  0  0  0  0  0
  -89.8100   32.2907   -2.3175 N   0  0  0  0  0  0  0  0  0  0  0  0
  -91.7067   31.8292   -3.7177 N   0  0  0  0  0  0  0  0  0  0  0  0
  -92.6608   31.5027   -3.3725 H   0  0  0  0  0  0  0  0  0  0  0  0
  -88.5536   34.7805   -4.7351 C   0  0  0  0  0  0  0  0  0  0  0  0
  -87.7420   33.8802   -4.5291 O   0  0  0  0  0  0  0  0  0  0  0  0
  -89.9084   34.4262   -5.1110 N   0  0  0  0  0  0  0  0  0  0  0  0
  -90.8301   35.4911   -5.3446 C   0  0  0  0  0  0  0  0  0  0  0  0
  -92.1234   34.9119   -5.8794 C   0  0  0  0  0  0  0  0  0  0  0  0
  -92.5531   33.8786   -4.8173 C   0  0  0  0  0  0  0  0  0  0  0  0
  -91.6772   32.6765   -4.8735 C   0  0  0  0  0  0  0  0  0  0  0  0
  -90.2840   33.0495   -5.2674 C   0  0  0  0  0  0  0  0  0  0  0  0
  -87.0381   38.6914   -4.1880 N   0  0  0  0  0  0  0  0  0  0  0  0
  -86.6887   37.9356   -5.3195 C   0  0  0  0  0  0  0  0  0  0  0  0
  -86.8024   36.4481   -5.2141 C   0  0  0  0  0  0  0  0  0  0  0  0
  -88.2074   36.1935   -4.6144 C   0  0  0  0  0  0  0  0  0  0  0  0
  -88.0454   36.6799   -3.1808 C   0  0  0  0  0  0  0  0  0  0  0  0
  -87.9857   38.1877   -3.2757 C   0  0  0  0  0  0  0  0  0  0  0  0
  -84.7405   39.5545   -4.2217 C   0  0  0  0  0  0  0  0  0  0  0  0
  -86.1700   39.7222   -3.7628 C   0  0  0  0  0  0  0  0  0  0  0  0
  -87.8914   32.8294   -0.9557 N   0  0  0  0  0  0  0  0  0  0  0  0
  -88.3737   33.7616   -0.6640 H   0  0  0  0  0  0  0  0  0  0  0  0
  -86.5414   32.6786   -0.6458 C   0  0  0  0  0  0  0  0  0  0  0  0
  -85.5899   33.4915   -1.2944 C   0  0  0  0  0  0  0  0  0  0  0  0
  -84.2291   33.3598   -1.0689 C   0  0  0  0  0  0  0  0  0  0  0  0
  -83.7990   32.3969   -0.1766 C   0  0  0  0  0  0  0  0  0  0  0  0
  -82.5500   32.0536    0.2185 N   0  0  0  0  0  0  0  0  0  0  0  0
  -82.6181   31.0383    1.1115 C   0  0  0  0  0  0  0  0  0  0  0  0
  -83.9434   30.7486    1.2713 C   0  0  0  0  0  0  0  0  0  0  0  0
  -84.6676   31.5886    0.4752 C   0  0  0  0  0  0  0  0  0  0  0  0
  -86.0312   31.7590    0.2139 C   0  0  0  0  0  0  0  0  0  0  0  0
  -81.6743   32.4926   -0.1075 H   0  0  0  0  0  0  0  0  0  0  0  0
  -88.8013   28.2970   -2.2232 O   0  0  0  0  0  0  0  0  0  0  0  0
  -88.7114   27.6816   -0.9881 C   0  0  0  0  0  0  0  0  0  0  0  0
  -87.7379   26.7434   -0.7578 C   0  0  0  0  0  0  0  0  0  0  0  0
  -87.6283   26.1106    0.4810 C   0  0  0  0  0  0  0  0  0  0  0  0
  -88.4890   26.4051    1.5066 C   0  0  0  0  0  0  0  0  0  0  0  0
  -89.4833   27.3568    1.2844 C   0  0  0  0  0  0  0  0  0  0  0  0
  -89.5692   27.9622    0.0626 C   0  0  0  0  0  0  0  0  0  0  0  0
  -88.3680   25.7724    2.7589 N   0  0  0  0  0  0  0  0  0  0  0  0
  -87.3950   25.7651    3.1754 H   0  0  0  0  0  0  0  0  0  0  0  0
  -89.6513   25.0528    3.5875 S   0  0  0  0  0  0  0  0  0  0  0  0
  -90.6530   26.1349    4.5453 C   0  0  0  0  0  0  0  0  0  0  0  0
  -90.5255   24.2828    2.6102 O   0  0  0  0  0  0  0  0  0  0  0  0
  -89.1606   23.9742    4.5570 O   0  0  0  0  0  0  0  0  0  0  0  0
 23 24  1  0  0  0
 24 17  1  0  0  0
 17 18  1  0  0  0
 18 19  1  0  0  0
 19 20  1  0  0  0
 20 21  1  0  0  0
 21 22  1  0  0  0
 20  9  1  0  0  0
  9 10  2  0  0  0
  9 11  1  0  0  0
 11 12  1  0  0  0
 12 13  1  0  0  0
 13 14  1  0  0  0
 14 15  1  0  0  0
 15 16  1  0  0  0
 15  7  1  0  0  0
  7  1  1  0  0  0
  1  2  2  0  0  0
  2  3  1  0  0  0
  3 37  1  0  0  0
 37 38  1  0  0  0
 38 39  2  0  0  0
 39 40  1  0  0  0
 40 41  2  0  0  0
 41 44  1  0  0  0
 44 46  1  0  0  0
 46 47  1  0  0  0
 46 48  2  0  0  0
 46 49  2  0  0  0
 41 42  1  0  0  0
 42 43  2  0  0  0
  3  4  2  0  0  0
  4  5  1  0  0  0
  5 25  1  0  0  0
 25 27  1  0  0  0
 27 28  2  0  0  0
 28 29  1  0  0  0
 29 30  2  0  0  0
 30 31  1  0  0  0
 31 32  1  0  0  0
 32 33  2  0  0  0
 33 34  1  0  0  0
 34 35  2  0  0  0
  5  6  2  0  0  0
 22 17  1  0  0  0
 16 11  1  0  0  0
  6  1  1  0  0  0
 43 38  1  0  0  0
 35 27  1  0  0  0
 34 30  1  0  0  0
  7  8  1  0  0  0
 44 45  1  0  0  0
 25 26  1  0  0  0
 31 36  1  0  0  0
M  END
> <minimizedAffinity>
-9.72418

> <CNNscore>
0.0626087561

> <CNNaffinity>
7.0333051682

> <CNN_VS>
0.4403464794

> <CNNaffinity_variance>
0.6955928802

$$$$
[H]c1c(Oc2c([H])c([H])c(N([H])S(=O)(=O)C([H])([H])[H])c([H])c2[H])nc(N([H])c2c([H])c([H])c3c(c2[H])c([H])c([H])n3[H])nc1N([H])[C@]1([H])C([H])([H])N(C(=O)C2([H])C([H])([H])C([H])([H])N(C([H])([H])C([H])([H])[H])C([H])([H])C2([H])[H])C([H])([H])C([H])([H])C1([H])[H]


 49 54  0  0  0  0  0  0  0  0999 V2000
  -89.8714   32.0534   -4.1167 C   0  0  0  0  0  0  0  0  0  0  0  0
  -90.0011   30.7069   -3.8291 C   0  0  0  0  0  0  0  0  0  0  0  0
  -89.2949   30.2021   -2.7411 C   0  0  0  0  0  0  0  0  0  0  0  0
  -88.5333   31.0529   -2.0399 N   0  0  0  0  0  0  0  0  0  0  0  0
  -88.3840   32.3480   -2.2854 C   0  0  0  0  0  0  0  0  0  0  0  0
  -89.0749   32.8574   -3.3537 N   0  0  0  0  0  0  0  0  0  0  0  0
  -90.5575   32.5904   -5.2250 N   0  0  0  0  0  0  0  0  0  0  0  0
  -89.9702   32.8239   -6.0833 H   0  0  0  0  0  0  0  0  0  0  0  0
  -93.7975   29.6095   -4.6738 C   0  0  0  0  0  0  0  0  0  0  0  0
  -93.2193   29.2751   -3.6415 O   0  0  0  0  0  0  0  0  0  0  0  0
  -93.5963   30.9522   -5.1827 N   0  0  0  0  0  0  0  0  0  0  0  0
  -94.2800   31.3143   -6.3826 C   0  0  0  0  0  0  0  0  0  0  0  0
  -94.0643   32.7906   -6.6434 C   0  0  0  0  0  0  0  0  0  0  0  0
  -92.5309   32.9585   -6.6727 C   0  0  0  0  0  0  0  0  0  0  0  0
  -91.9664   32.8433   -5.3003 C   0  0  0  0  0  0  0  0  0  0  0  0
  -92.7598   31.8808   -4.4762 C   0  0  0  0  0  0  0  0  0  0  0  0
  -95.9495   26.5875   -6.7054 N   0  0  0  0  0  0  0  0  0  0  0  0
  -95.9749   26.6707   -5.3032 C   0  0  0  0  0  0  0  0  0  0  0  0
  -94.8362   27.3742   -4.6359 C   0  0  0  0  0  0  0  0  0  0  0  0
  -94.6782   28.7069   -5.4089 C   0  0  0  0  0  0  0  0  0  0  0  0
  -94.1255   28.2447   -6.7501 C   0  0  0  0  0  0  0  0  0  0  0  0
  -95.2880   27.5811   -7.4531 C   0  0  0  0  0  0  0  0  0  0  0  0
  -95.2127   24.2626   -6.9831 C   0  0  0  0  0  0  0  0  0  0  0  0
  -96.2145   25.3424   -7.3187 C   0  0  0  0  0  0  0  0  0  0  0  0
  -87.5382   33.1835   -1.5212 N   0  0  0  0  0  0  0  0  0  0  0  0
  -87.8635   34.2153   -1.3935 H   0  0  0  0  0  0  0  0  0  0  0  0
  -86.3368   32.8086   -0.9236 C   0  0  0  0  0  0  0  0  0  0  0  0
  -85.1507   33.4836   -1.2764 C   0  0  0  0  0  0  0  0  0  0  0  0
  -83.9162   33.1289   -0.7568 C   0  0  0  0  0  0  0  0  0  0  0  0
  -83.8547   32.0772    0.1368 C   0  0  0  0  0  0  0  0  0  0  0  0
  -82.7985   31.5251    0.7800 N   0  0  0  0  0  0  0  0  0  0  0  0
  -83.2233   30.5009    1.5567 C   0  0  0  0  0  0  0  0  0  0  0  0
  -84.5764   30.4197    1.3882 C   0  0  0  0  0  0  0  0  0  0  0  0
  -84.9612   31.3934    0.5120 C   0  0  0  0  0  0  0  0  0  0  0  0
  -86.1843   31.7880   -0.0402 C   0  0  0  0  0  0  0  0  0  0  0  0
  -81.8161   31.8312    0.6955 H   0  0  0  0  0  0  0  0  0  0  0  0
  -89.3973   28.8575   -2.4196 O   0  0  0  0  0  0  0  0  0  0  0  0
  -89.5916   28.5182   -1.0932 C   0  0  0  0  0  0  0  0  0  0  0  0
  -90.8278   28.6714   -0.5193 C   0  0  0  0  0  0  0  0  0  0  0  0
  -91.0466   28.3347    0.8170 C   0  0  0  0  0  0  0  0  0  0  0  0
  -90.0345   27.8412    1.5991 C   0  0  0  0  0  0  0  0  0  0  0  0
  -88.7731   27.6816    1.0272 C   0  0  0  0  0  0  0  0  0  0  0  0
  -88.5850   28.0184   -0.2836 C   0  0  0  0  0  0  0  0  0  0  0  0
  -90.2621   27.4919    2.9442 N   0  0  0  0  0  0  0  0  0  0  0  0
  -90.3763   28.3033    3.6142 H   0  0  0  0  0  0  0  0  0  0  0  0
  -90.3531   25.9039    3.5109 S   0  0  0  0  0  0  0  0  0  0  0  0
  -90.9075   24.7033    2.3522 C   0  0  0  0  0  0  0  0  0  0  0  0
  -89.0050   25.4822    4.0741 O   0  0  0  0  0  0  0  0  0  0  0  0
  -91.2958   25.7885    4.7118 O   0  0  0  0  0  0  0  0  0  0  0  0
 23 24  1  0  0  0
 24 17  1  0  0  0
 17 18  1  0  0  0
 18 19  1  0  0  0
 19 20  1  0  0  0
 20 21  1  0  0  0
 21 22  1  0  0  0
 20  9  1  0  0  0
  9 10  2  0  0  0
  9 11  1  0  0  0
 11 12  1  0  0  0
 12 13  1  0  0  0
 13 14  1  0  0  0
 14 15  1  0  0  0
 15 16  1  0  0  0
 15  7  1  0  0  0
  7  1  1  0  0  0
  1  2  2  0  0  0
  2  3  1  0  0  0
  3 37  1  0  0  0
 37 38  1  0  0  0
 38 39  2  0  0  0
 39 40  1  0  0  0
 40 41  2  0  0  0
 41 44  1  0  0  0
 44 46  1  0  0  0
 46 47  1  0  0  0
 46 48  2  0  0  0
 46 49  2  0  0  0
 41 42  1  0  0  0
 42 43  2  0  0  0
  3  4  2  0  0  0
  4  5  1  0  0  0
  5 25  1  0  0  0
 25 27  1  0  0  0
 27 28  2  0  0  0
 28 29  1  0  0  0
 29 30  2  0  0  0
 30 31  1  0  0  0
 31 32  1  0  0  0
 32 33  2  0  0  0
 33 34  1  0  0  0
 34 35  2  0  0  0
  5  6  2  0  0  0
 22 17  1  0  0  0
 16 11  1  0  0  0
  6  1  1  0  0  0
 43 38  1  0  0  0
 35 27  1  0  0  0
 34 30  1  0  0  0
  7  8  1  0  0  0
 44 45  1  0  0  0
 25 26  1  0  0  0
 31 36  1  0  0  0
M  END
> <minimizedAffinity>
-8.82489

> <CNNscore>
0.0601249672

> <CNNaffinity>
6.7581610680

> <CNN_VS>
0.4063342214

> <CNNaffinity_variance>
0.4468770027

$$$$
[H]c1c(Oc2c([H])c([H])c(N([H])S(=O)(=O)C([H])([H])[H])c([H])c2[H])nc(N([H])c2c([H])c([H])c3c(c2[H])c([H])c([H])n3[H])nc1N([H])[C@]1([H])C([H])([H])N(C(=O)C2([H])C([H])([H])C([H])([H])N(C([H])([H])C([H])([H])[H])C([H])([H])C2([H])[H])C([H])([H])C([H])([H])C1([H])[H]


 49 54  0  0  0  0  0  0  0  0999 V2000
  -88.4444   25.8292   -0.1806 C   0  0  0  0  0  0  0  0  0  0  0  0
  -89.1271   26.5996   -1.1042 C   0  0  0  0  0  0  0  0  0  0  0  0
  -88.9087   27.9742   -1.0946 C   0  0  0  0  0  0  0  0  0  0  0  0
  -88.0500   28.4653   -0.1906 N   0  0  0  0  0  0  0  0  0  0  0  0
  -87.3784   27.7592    0.7094 C   0  0  0  0  0  0  0  0  0  0  0  0
  -87.5842   26.4042    0.7096 N   0  0  0  0  0  0  0  0  0  0  0  0
  -88.6600   24.4364   -0.1514 N   0  0  0  0  0  0  0  0  0  0  0  0
  -87.8766   23.8233   -0.5343 H   0  0  0  0  0  0  0  0  0  0  0  0
  -92.2020   23.2032   -2.5221 C   0  0  0  0  0  0  0  0  0  0  0  0
  -91.4098   22.6840   -3.3061 O   0  0  0  0  0  0  0  0  0  0  0  0
  -91.7974   23.3901   -1.1425 N   0  0  0  0  0  0  0  0  0  0  0  0
  -92.7367   23.9948   -0.2536 C   0  0  0  0  0  0  0  0  0  0  0  0
  -92.1817   23.9448    1.1548 C   0  0  0  0  0  0  0  0  0  0  0  0
  -90.8107   24.6454    1.0556 C   0  0  0  0  0  0  0  0  0  0  0  0
  -89.8298   23.7766    0.3496 C   0  0  0  0  0  0  0  0  0  0  0  0
  -90.5058   22.9496   -0.6965 C   0  0  0  0  0  0  0  0  0  0  0  0
  -95.9302   24.2624   -4.2162 N   0  0  0  0  0  0  0  0  0  0  0  0
  -95.6747   22.9434   -3.8054 C   0  0  0  0  0  0  0  0  0  0  0  0
  -94.2443   22.5154   -3.7193 C   0  0  0  0  0  0  0  0  0  0  0  0
  -93.5348   23.6406   -2.9262 C   0  0  0  0  0  0  0  0  0  0  0  0
  -93.5424   24.7960   -3.9177 C   0  0  0  0  0  0  0  0  0  0  0  0
  -94.9775   25.2695   -3.9671 C   0  0  0  0  0  0  0  0  0  0  0  0
  -96.3627   24.5877   -6.6104 C   0  0  0  0  0  0  0  0  0  0  0  0
  -96.9122   24.4892   -5.2067 C   0  0  0  0  0  0  0  0  0  0  0  0
  -86.5090   28.3470    1.6558 N   0  0  0  0  0  0  0  0  0  0  0  0
  -86.6973   28.1065    2.7016 H   0  0  0  0  0  0  0  0  0  0  0  0
  -85.4437   29.1992    1.3731 C   0  0  0  0  0  0  0  0  0  0  0  0
  -84.1731   28.9185    1.9152 C   0  0  0  0  0  0  0  0  0  0  0  0
  -83.0836   29.7505    1.7138 C   0  0  0  0  0  0  0  0  0  0  0  0
  -83.2570   30.8914    0.9544 C   0  0  0  0  0  0  0  0  0  0  0  0
  -82.3813   31.8659    0.6115 N   0  0  0  0  0  0  0  0  0  0  0  0
  -83.0098   32.7973   -0.1437 C   0  0  0  0  0  0  0  0  0  0  0  0
  -84.3063   32.3862   -0.2699 C   0  0  0  0  0  0  0  0  0  0  0  0
  -84.4541   31.2108    0.4087 C   0  0  0  0  0  0  0  0  0  0  0  0
  -85.5242   30.3404    0.6408 C   0  0  0  0  0  0  0  0  0  0  0  0
  -81.3856   31.9017    0.8816 H   0  0  0  0  0  0  0  0  0  0  0  0
  -89.5741   28.7819   -2.0038 O   0  0  0  0  0  0  0  0  0  0  0  0
  -88.9401   29.9310   -2.4396 C   0  0  0  0  0  0  0  0  0  0  0  0
  -88.9974   31.0749   -1.6852 C   0  0  0  0  0  0  0  0  0  0  0  0
  -88.3646   32.2454   -2.1052 C   0  0  0  0  0  0  0  0  0  0  0  0
  -87.6663   32.2904   -3.2842 C   0  0  0  0  0  0  0  0  0  0  0  0
  -87.6014   31.1340   -4.0603 C   0  0  0  0  0  0  0  0  0  0  0  0
  -88.2295   30.0008   -3.6265 C   0  0  0  0  0  0  0  0  0  0  0  0
  -87.0195   33.4705   -3.6991 N   0  0  0  0  0  0  0  0  0  0  0  0
  -85.9623   33.4538   -3.6504 H   0  0  0  0  0  0  0  0  0  0  0  0
  -87.8223   34.8524   -4.2440 S   0  0  0  0  0  0  0  0  0  0  0  0
  -89.1464   34.5809   -5.3686 C   0  0  0  0  0  0  0  0  0  0  0  0
  -88.3226   35.6575   -3.0548 O   0  0  0  0  0  0  0  0  0  0  0  0
  -86.8663   35.8156   -4.9528 O   0  0  0  0  0  0  0  0  0  0  0  0
 23 24  1  0  0  0
 24 17  1  0  0  0
 17 18  1  0  0  0
 18 19  1  0  0  0
 19 20  1  0  0  0
 20 21  1  0  0  0
 21 22  1  0  0  0
 20  9  1  0  0  0
  9 10  2  0  0  0
  9 11  1  0  0  0
 11 12  1  0  0  0
 12 13  1  0  0  0
 13 14  1  0  0  0
 14 15  1  0  0  0
 15 16  1  0  0  0
 15  7  1  0  0  0
  7  1  1  0  0  0
  1  2  2  0  0  0
  2  3  1  0  0  0
  3 37  1  0  0  0
 37 38  1  0  0  0
 38 39  2  0  0  0
 39 40  1  0  0  0
 40 41  2  0  0  0
 41 44  1  0  0  0
 44 46  1  0  0  0
 46 47  1  0  0  0
 46 48  2  0  0  0
 46 49  2  0  0  0
 41 42  1  0  0  0
 42 43  2  0  0  0
  3  4  2  0  0  0
  4  5  1  0  0  0
  5 25  1  0  0  0
 25 27  1  0  0  0
 27 28  2  0  0  0
 28 29  1  0  0  0
 29 30  2  0  0  0
 30 31  1  0  0  0
 31 32  1  0  0  0
 32 33  2  0  0  0
 33 34  1  0  0  0
 34 35  2  0  0  0
  5  6  2  0  0  0
 22 17  1  0  0  0
 16 11  1  0  0  0
  6  1  1  0  0  0
 43 38  1  0  0  0
 35 27  1  0  0  0
 34 30  1  0  0  0
  7  8  1  0  0  0
 44 45  1  0  0  0
 25 26  1  0  0  0
 31 36  1  0  0  0
M  END
> <minimizedAffinity>
-9.51819

> <CNNscore>
0.0567439646

> <CNNaffinity>
6.8933463097

> <CNN_VS>
0.3911558092

> <CNNaffinity_variance>
0.4593642652

$$$$
[H]c1c(Oc2c([H])c([H])c(N([H])S(=O)(=O)C([H])([H])[H])c([H])c2[H])nc(N([H])c2c([H])c([H])c3c(c2[H])c([H])c([H])n3[H])nc1N([H])[C@]1([H])C([H])([H])N(C(=O)C2([H])C([H])([H])C([H])([H])N(C([H])([H])C([H])([H])[H])C([H])([H])C2([H])[H])C([H])([H])C([H])([H])C1([H])[H]


 49 54  0  0  0  0  0  0  0  0999 V2000
  -88.2203   33.5524   -4.4307 C   0  0  0  0  0  0  0  0  0  0  0  0
  -88.3955   32.2062   -4.6948 C   0  0  0  0  0  0  0  0  0  0  0  0
  -87.8708   31.2905   -3.7872 C   0  0  0  0  0  0  0  0  0  0  0  0
  -87.2286   31.7709   -2.7138 N   0  0  0  0  0  0  0  0  0  0  0  0
  -87.0406   33.0525   -2.4277 C   0  0  0  0  0  0  0  0  0  0  0  0
  -87.5533   33.9643   -3.3132 N   0  0  0  0  0  0  0  0  0  0  0  0
  -88.7218   34.5042   -5.3416 N   0  0  0  0  0  0  0  0  0  0  0  0
  -88.0016   35.0598   -5.8972 H   0  0  0  0  0  0  0  0  0  0  0  0
  -92.1609   31.9085   -4.2824 C   0  0  0  0  0  0  0  0  0  0  0  0
  -91.6702   31.8359   -3.1573 O   0  0  0  0  0  0  0  0  0  0  0  0
  -91.8488   33.0596   -5.1069 N   0  0  0  0  0  0  0  0  0  0  0  0
  -92.4323   33.1188   -6.4085 C   0  0  0  0  0  0  0  0  0  0  0  0
  -92.1135   34.4637   -7.0281 C   0  0  0  0  0  0  0  0  0  0  0  0
  -90.5741   34.5558   -6.9823 C   0  0  0  0  0  0  0  0  0  0  0  0
  -90.1057   34.7849   -5.5882 C   0  0  0  0  0  0  0  0  0  0  0  0
  -91.0053   34.1073   -4.6050 C   0  0  0  0  0  0  0  0  0  0  0  0
  -94.5752   28.6143   -5.3826 N   0  0  0  0  0  0  0  0  0  0  0  0
  -95.0116   29.5358   -4.4162 C   0  0  0  0  0  0  0  0  0  0  0  0
  -93.9649   30.3314   -3.7033 C   0  0  0  0  0  0  0  0  0  0  0  0
  -93.0451   30.8799   -4.8220 C   0  0  0  0  0  0  0  0  0  0  0  0
  -92.3287   29.6253   -5.3025 C   0  0  0  0  0  0  0  0  0  0  0  0
  -93.3684   28.8426   -6.0721 C   0  0  0  0  0  0  0  0  0  0  0  0
  -94.0692   26.2167   -5.2378 C   0  0  0  0  0  0  0  0  0  0  0  0
  -95.1084   27.3057   -5.3657 C   0  0  0  0  0  0  0  0  0  0  0  0
  -86.3253   33.4901   -1.2901 N   0  0  0  0  0  0  0  0  0  0  0  0
  -86.5440   34.4977   -0.9384 H   0  0  0  0  0  0  0  0  0  0  0  0
  -85.3738   32.7550   -0.5864 C   0  0  0  0  0  0  0  0  0  0  0  0
  -84.0115   33.0970   -0.7052 C   0  0  0  0  0  0  0  0  0  0  0  0
  -83.0111   32.3776   -0.0719 C   0  0  0  0  0  0  0  0  0  0  0  0
  -83.3695   31.2898    0.7006 C   0  0  0  0  0  0  0  0  0  0  0  0
  -82.6101   30.4220    1.4109 N   0  0  0  0  0  0  0  0  0  0  0  0
  -83.4061   29.5040    2.0079 C   0  0  0  0  0  0  0  0  0  0  0  0
  -84.6893   29.8140    1.6570 C   0  0  0  0  0  0  0  0  0  0  0  0
  -84.6618   30.9156    0.8509 C   0  0  0  0  0  0  0  0  0  0  0  0
  -85.6358   31.6725    0.1913 C   0  0  0  0  0  0  0  0  0  0  0  0
  -81.5811   30.4483    1.4892 H   0  0  0  0  0  0  0  0  0  0  0  0
  -88.0246   29.9318   -4.0157 O   0  0  0  0  0  0  0  0  0  0  0  0
  -88.4293   29.1358   -2.9598 C   0  0  0  0  0  0  0  0  0  0  0  0
  -89.7611   29.0333   -2.6486 C   0  0  0  0  0  0  0  0  0  0  0  0
  -90.1920   28.2354   -1.5881 C   0  0  0  0  0  0  0  0  0  0  0  0
  -89.2996   27.5294   -0.8233 C   0  0  0  0  0  0  0  0  0  0  0  0
  -87.9429   27.6261   -1.1296 C   0  0  0  0  0  0  0  0  0  0  0  0
  -87.5469   28.4139   -2.1733 C   0  0  0  0  0  0  0  0  0  0  0  0
  -89.7394   26.7164    0.2390 N   0  0  0  0  0  0  0  0  0  0  0  0
  -89.9306   25.7050   -0.0080 H   0  0  0  0  0  0  0  0  0  0  0  0
  -89.9687   27.2618    1.8205 S   0  0  0  0  0  0  0  0  0  0  0  0
  -91.0481   28.6365    2.0123 C   0  0  0  0  0  0  0  0  0  0  0  0
  -90.4479   26.1135    2.6948 O   0  0  0  0  0  0  0  0  0  0  0  0
  -88.6459   27.6788    2.4690 O   0  0  0  0  0  0  0  0  0  0  0  0
 23 24  1  0  0  0
 24 17  1  0  0  0
 17 18  1  0  0  0
 18 19  1  0  0  0
 19 20  1  0  0  0
 20 21  1  0  0  0
 21 22  1  0  0  0
 20  9  1  0  0  0
  9 10  2  0  0  0
  9 11  1  0  0  0
 11 12  1  0  0  0
 12 13  1  0  0  0
 13 14  1  0  0  0
 14 15  1  0  0  0
 15 16  1  0  0  0
 15  7  1  0  0  0
  7  1  1  0  0  0
  1  2  2  0  0  0
  2  3  1  0  0  0
  3 37  1  0  0  0
 37 38  1  0  0  0
 38 39  2  0  0  0
 39 40  1  0  0  0
 40 41  2  0  0  0
 41 44  1  0  0  0
 44 46  1  0  0  0
 46 47  1  0  0  0
 46 48  2  0  0  0
 46 49  2  0  0  0
 41 42  1  0  0  0
 42 43  2  0  0  0
  3  4  2  0  0  0
  4  5  1  0  0  0
  5 25  1  0  0  0
 25 27  1  0  0  0
 27 28  2  0  0  0
 28 29  1  0  0  0
 29 30  2  0  0  0
 30 31  1  0  0  0
 31 32  1  0  0  0
 32 33  2  0  0  0
 33 34  1  0  0  0
 34 35  2  0  0  0
  5  6  2  0  0  0
 22 17  1  0  0  0
 16 11  1  0  0  0
  6  1  1  0  0  0
 43 38  1  0  0  0
 35 27  1  0  0  0
 34 30  1  0  0  0
  7  8  1  0  0  0
 44 45  1  0  0  0
 25 26  1  0  0  0
 31 36  1  0  0  0
M  END
> <minimizedAffinity>
-9.38673

> <CNNscore>
0.0461722314

> <CNNaffinity>
6.8558549881

> <CNN_VS>
0.3165501356

> <CNNaffinity_variance>
0.8295313120

$$$$
[H]c1c(Oc2c([H])c([H])c(N([H])S(=O)(=O)C([H])([H])[H])c([H])c2[H])nc(N([H])c2c([H])c([H])c3c(c2[H])c([H])c([H])n3[H])nc1N([H])[C@]1([H])C([H])([H])N(C(=O)C2([H])C([H])([H])C([H])([H])N(C([H])([H])C([H])([H])[H])C([H])([H])C2([H])[H])C([H])([H])C([H])([H])C1([H])[H]


 49 54  0  0  0  0  0  0  0  0999 V2000
  -88.9903   32.4945   -3.7722 C   0  0  0  0  0  0  0  0  0  0  0  0
  -87.8235   32.7427   -3.0725 C   0  0  0  0  0  0  0  0  0  0  0  0
  -87.0537   33.8369   -3.4567 C   0  0  0  0  0  0  0  0  0  0  0  0
  -87.4918   34.5818   -4.4809 N   0  0  0  0  0  0  0  0  0  0  0  0
  -88.6032   34.3749   -5.1749 C   0  0  0  0  0  0  0  0  0  0  0  0
  -89.3705   33.3009   -4.8058 N   0  0  0  0  0  0  0  0  0  0  0  0
  -89.7809   31.3815   -3.4206 N   0  0  0  0  0  0  0  0  0  0  0  0
  -90.8147   31.5678   -3.2395 H   0  0  0  0  0  0  0  0  0  0  0  0
  -90.9347   28.5031   -0.2472 C   0  0  0  0  0  0  0  0  0  0  0  0
  -92.1008   28.8056   -0.4937 O   0  0  0  0  0  0  0  0  0  0  0  0
  -89.9354   28.6742   -1.2837 N   0  0  0  0  0  0  0  0  0  0  0  0
  -88.5896   28.3148   -0.9709 C   0  0  0  0  0  0  0  0  0  0  0  0
  -87.7506   28.4141   -2.2280 C   0  0  0  0  0  0  0  0  0  0  0  0
  -87.9577   29.8624   -2.7181 C   0  0  0  0  0  0  0  0  0  0  0  0
  -89.3210   30.0301   -3.2914 C   0  0  0  0  0  0  0  0  0  0  0  0
  -90.3088   29.1607   -2.5818 C   0  0  0  0  0  0  0  0  0  0  0  0
  -90.2509   26.7542    3.5429 N   0  0  0  0  0  0  0  0  0  0  0  0
  -90.1661   25.9861    2.3696 C   0  0  0  0  0  0  0  0  0  0  0  0
  -90.9030   26.4844    1.1674 C   0  0  0  0  0  0  0  0  0  0  0  0
  -90.5160   27.9793    1.0494 C   0  0  0  0  0  0  0  0  0  0  0  0
  -91.2359   28.5995    2.2390 C   0  0  0  0  0  0  0  0  0  0  0  0
  -90.4616   28.1441    3.4552 C   0  0  0  0  0  0  0  0  0  0  0  0
  -89.7825   26.6633    5.9507 C   0  0  0  0  0  0  0  0  0  0  0  0
  -90.5317   26.1024    4.7648 C   0  0  0  0  0  0  0  0  0  0  0  0
  -88.9909   35.1847   -6.2663 N   0  0  0  0  0  0  0  0  0  0  0  0
  -89.8714   34.8617   -6.8204 H   0  0  0  0  0  0  0  0  0  0  0  0
  -88.3525   36.3473   -6.6928 C   0  0  0  0  0  0  0  0  0  0  0  0
  -88.9653   37.1496   -7.6765 C   0  0  0  0  0  0  0  0  0  0  0  0
  -88.3626   38.2911   -8.1798 C   0  0  0  0  0  0  0  0  0  0  0  0
  -87.1190   38.6480   -7.6955 C   0  0  0  0  0  0  0  0  0  0  0  0
  -86.3141   39.6905   -8.0108 N   0  0  0  0  0  0  0  0  0  0  0  0
  -85.1779   39.6262   -7.2775 C   0  0  0  0  0  0  0  0  0  0  0  0
  -85.2853   38.5156   -6.4895 C   0  0  0  0  0  0  0  0  0  0  0  0
  -86.4836   37.9157   -6.7506 C   0  0  0  0  0  0  0  0  0  0  0  0
  -87.1318   36.7714   -6.2741 C   0  0  0  0  0  0  0  0  0  0  0  0
  -86.5259   40.4254   -8.7041 H   0  0  0  0  0  0  0  0  0  0  0  0
  -85.8766   34.1199   -2.7813 O   0  0  0  0  0  0  0  0  0  0  0  0
  -85.6048   33.4146   -1.6233 C   0  0  0  0  0  0  0  0  0  0  0  0
  -84.3078   33.2472   -1.2099 C   0  0  0  0  0  0  0  0  0  0  0  0
  -84.0106   32.5400   -0.0444 C   0  0  0  0  0  0  0  0  0  0  0  0
  -85.0035   31.9896    0.7241 C   0  0  0  0  0  0  0  0  0  0  0  0
  -86.3260   32.1524    0.3138 C   0  0  0  0  0  0  0  0  0  0  0  0
  -86.5904   32.8495   -0.8311 C   0  0  0  0  0  0  0  0  0  0  0  0
  -84.7001   31.2862    1.9057 N   0  0  0  0  0  0  0  0  0  0  0  0
  -84.6666   31.8687    2.7889 H   0  0  0  0  0  0  0  0  0  0  0  0
  -84.3967   29.6264    1.9718 S   0  0  0  0  0  0  0  0  0  0  0  0
  -82.7034   29.1530    1.9872 C   0  0  0  0  0  0  0  0  0  0  0  0
  -85.1041   29.0231    3.1750 O   0  0  0  0  0  0  0  0  0  0  0  0
  -85.0222   28.8926    0.7824 O   0  0  0  0  0  0  0  0  0  0  0  0
 23 24  1  0  0  0
 24 17  1  0  0  0
 17 18  1  0  0  0
 18 19  1  0  0  0
 19 20  1  0  0  0
 20 21  1  0  0  0
 21 22  1  0  0  0
 20  9  1  0  0  0
  9 10  2  0  0  0
  9 11  1  0  0  0
 11 12  1  0  0  0
 12 13  1  0  0  0
 13 14  1  0  0  0
 14 15  1  0  0  0
 15 16  1  0  0  0
 15  7  1  0  0  0
  7  1  1  0  0  0
  1  2  2  0  0  0
  2  3  1  0  0  0
  3 37  1  0  0  0
 37 38  1  0  0  0
 38 39  2  0  0  0
 39 40  1  0  0  0
 40 41  2  0  0  0
 41 44  1  0  0  0
 44 46  1  0  0  0
 46 47  1  0  0  0
 46 48  2  0  0  0
 46 49  2  0  0  0
 41 42  1  0  0  0
 42 43  2  0  0  0
  3  4  2  0  0  0
  4  5  1  0  0  0
  5 25  1  0  0  0
 25 27  1  0  0  0
 27 28  2  0  0  0
 28 29  1  0  0  0
 29 30  2  0  0  0
 30 31  1  0  0  0
 31 32  1  0  0  0
 32 33  2  0  0  0
 33 34  1  0  0  0
 34 35  2  0  0  0
  5  6  2  0  0  0
 22 17  1  0  0  0
 16 11  1  0  0  0
  6  1  1  0  0  0
 43 38  1  0  0  0
 35 27  1  0  0  0
 34 30  1  0  0  0
  7  8  1  0  0  0
 44 45  1  0  0  0
 25 26  1  0  0  0
 31 36  1  0  0  0
M  END
> <minimizedAffinity>
-9.52345

> <CNNscore>
0.0346192904

> <CNNaffinity>
6.7869820595

> <CNN_VS>
0.2349604964

> <CNNaffinity_variance>
0.6013061404

$$$$
[H]c1c([H])c([H])c(/C(=C2/C(=O)N([H])c3c([H])c(C(=O)OC([H])([H])[H])c([H])c([H])c32)N([H])c2c([H])c([H])c(OC([H])([H])c3c([H])c([H])c([H])c([H])c3[H])c([H])c2[H])c([H])c1[H]


 38 42  0  0  0  0  0  0  0  0999 V2000
  -85.2978   28.8146    1.4356 C   0  0  0  0  0  0  0  0  0  0  0  0
  -86.5574   28.9752    0.8831 C   0  0  0  0  0  0  0  0  0  0  0  0
  -86.8953   30.0672    0.1208 C   0  0  0  0  0  0  0  0  0  0  0  0
  -85.9573   31.0392   -0.1099 C   0  0  0  0  0  0  0  0  0  0  0  0
  -86.0068   32.3100   -0.8219 C   0  0  0  0  0  0  0  0  0  0  0  0
  -86.9452   32.7995   -1.6294 C   0  0  0  0  0  0  0  0  0  0  0  0
  -84.6708   32.9331   -0.6544 C   0  0  0  0  0  0  0  0  0  0  0  0
  -84.3088   34.0210   -1.1045 O   0  0  0  0  0  0  0  0  0  0  0  0
  -83.8951   32.0210    0.1291 N   0  0  0  0  0  0  0  0  0  0  0  0
  -84.6767   30.9063    0.4383 C   0  0  0  0  0  0  0  0  0  0  0  0
  -84.3749   29.7998    1.1964 C   0  0  0  0  0  0  0  0  0  0  0  0
  -82.8980   32.2310    0.3894 H   0  0  0  0  0  0  0  0  0  0  0  0
  -88.0469   31.9672   -2.0634 C   0  0  0  0  0  0  0  0  0  0  0  0
  -89.2705   32.0969   -1.3841 C   0  0  0  0  0  0  0  0  0  0  0  0
  -90.3690   31.3374   -1.6972 C   0  0  0  0  0  0  0  0  0  0  0  0
  -90.2623   30.4157   -2.7158 C   0  0  0  0  0  0  0  0  0  0  0  0
  -89.0577   30.2853   -3.3876 C   0  0  0  0  0  0  0  0  0  0  0  0
  -87.9628   31.0452   -3.0725 C   0  0  0  0  0  0  0  0  0  0  0  0
  -84.9492   27.6512    2.2401 C   0  0  0  0  0  0  0  0  0  0  0  0
  -85.6081   26.5926    2.1836 O   0  0  0  0  0  0  0  0  0  0  0  0
  -82.5325   27.4948    2.7123 C   0  0  0  0  0  0  0  0  0  0  0  0
  -83.8690   27.7057    3.0885 O   0  0  0  0  0  0  0  0  0  0  0  0
  -86.7225   34.0933   -2.1563 N   0  0  0  0  0  0  0  0  0  0  0  0
  -85.9249   34.5946   -1.6158 H   0  0  0  0  0  0  0  0  0  0  0  0
  -87.3307   34.8182   -3.1615 C   0  0  0  0  0  0  0  0  0  0  0  0
  -87.8595   36.0459   -2.8178 C   0  0  0  0  0  0  0  0  0  0  0  0
  -88.5051   36.8567   -3.7073 C   0  0  0  0  0  0  0  0  0  0  0  0
  -88.6795   36.5127   -5.0163 C   0  0  0  0  0  0  0  0  0  0  0  0
  -88.1621   35.2857   -5.3998 C   0  0  0  0  0  0  0  0  0  0  0  0
  -87.4997   34.4580   -4.4788 C   0  0  0  0  0  0  0  0  0  0  0  0
  -89.3343   37.3259   -5.9284 O   0  0  0  0  0  0  0  0  0  0  0  0
  -90.6779   37.3658   -6.2301 C   0  0  0  0  0  0  0  0  0  0  0  0
  -91.5973   37.5820   -5.0908 C   0  0  0  0  0  0  0  0  0  0  0  0
  -91.6701   38.8248   -4.5138 C   0  0  0  0  0  0  0  0  0  0  0  0
  -92.5116   39.0909   -3.4602 C   0  0  0  0  0  0  0  0  0  0  0  0
  -93.2988   38.0805   -2.9763 C   0  0  0  0  0  0  0  0  0  0  0  0
  -93.2600   36.7993   -3.5302 C   0  0  0  0  0  0  0  0  0  0  0  0
  -92.4003   36.5823   -4.5849 C   0  0  0  0  0  0  0  0  0  0  0  0
 21 22  1  0  0  0
 22 19  1  0  0  0
 19 20  2  0  0  0
 19  1  1  0  0  0
  1  2  2  0  0  0
  2  3  1  0  0  0
  3  4  2  0  0  0
  4  5  1  0  0  0
  5  6  2  0  0  0
  6 23  1  0  0  0
 23 25  1  0  0  0
 25 26  2  0  0  0
 26 27  1  0  0  0
 27 28  2  0  0  0
 28 31  1  0  0  0
 31 32  1  0  0  0
 32 33  1  0  0  0
 33 34  2  0  0  0
 34 35  1  0  0  0
 35 36  2  0  0  0
 36 37  1  0  0  0
 37 38  2  0  0  0
 28 29  1  0  0  0
 29 30  2  0  0  0
  6 13  1  0  0  0
 13 14  2  0  0  0
 14 15  1  0  0  0
 15 16  2  0  0  0
 16 17  1  0  0  0
 17 18  2  0  0  0
  5  7  1  0  0  0
  7  8  2  0  0  0
  7  9  1  0  0  0
  9 10  1  0  0  0
 10 11  2  0  0  0
 11  1  1  0  0  0
 10  4  1  0  0  0
 30 25  1  0  0  0
 18 13  1  0  0  0
 38 33  1  0  0  0
 23 24  1  0  0  0
  9 12  1  0  0  0
M  END
> <minimizedAffinity>
-8.54474

> <CNNscore>
0.7800575495

> <CNNaffinity>
7.1838293076

> <CNN_VS>
5.6038002968

> <CNNaffinity_variance>
0.3156085610

$$$$
[H]c1c([H])c([H])c(/C(=C2/C(=O)N([H])c3c([H])c(C(=O)OC([H])([H])[H])c([H])c([H])c32)N([H])c2c([H])c([H])c(OC([H])([H])c3c([H])c([H])c([H])c([H])c3[H])c([H])c2[H])c([H])c1[H]


 38 42  0  0  0  0  0  0  0  0999 V2000
  -85.4016   28.8472    1.4302 C   0  0  0  0  0  0  0  0  0  0  0  0
  -86.6675   28.9923    0.8876 C   0  0  0  0  0  0  0  0  0  0  0  0
  -87.0249   30.0804    0.1288 C   0  0  0  0  0  0  0  0  0  0  0  0
  -86.1010   31.0642   -0.1087 C   0  0  0  0  0  0  0  0  0  0  0  0
  -86.1721   32.3347   -0.8194 C   0  0  0  0  0  0  0  0  0  0  0  0
  -87.1228   32.8128   -1.6192 C   0  0  0  0  0  0  0  0  0  0  0  0
  -84.8428   32.9744   -0.6620 C   0  0  0  0  0  0  0  0  0  0  0  0
  -84.4980   34.0671   -1.1141 O   0  0  0  0  0  0  0  0  0  0  0  0
  -84.0495   32.0717    0.1149 N   0  0  0  0  0  0  0  0  0  0  0  0
  -84.8147   30.9471    0.4294 C   0  0  0  0  0  0  0  0  0  0  0  0
  -84.4931   29.8441    1.1845 C   0  0  0  0  0  0  0  0  0  0  0  0
  -83.0532   32.2941    0.3675 H   0  0  0  0  0  0  0  0  0  0  0  0
  -88.2173   31.9670   -2.0452 C   0  0  0  0  0  0  0  0  0  0  0  0
  -87.9963   31.1158   -3.1416 C   0  0  0  0  0  0  0  0  0  0  0  0
  -88.9736   30.2940   -3.6428 C   0  0  0  0  0  0  0  0  0  0  0  0
  -90.2149   30.3083   -3.0448 C   0  0  0  0  0  0  0  0  0  0  0  0
  -90.4362   31.1460   -1.9638 C   0  0  0  0  0  0  0  0  0  0  0  0
  -89.4582   31.9654   -1.4660 C   0  0  0  0  0  0  0  0  0  0  0  0
  -85.0322   27.6879    2.2313 C   0  0  0  0  0  0  0  0  0  0  0  0
  -85.6636   26.6134    2.1613 O   0  0  0  0  0  0  0  0  0  0  0  0
  -82.6450   27.3912    2.7799 C   0  0  0  0  0  0  0  0  0  0  0  0
  -83.9627   27.7641    3.0913 O   0  0  0  0  0  0  0  0  0  0  0  0
  -86.9204   34.1097   -2.1470 N   0  0  0  0  0  0  0  0  0  0  0  0
  -86.1796   34.6489   -1.5639 H   0  0  0  0  0  0  0  0  0  0  0  0
  -87.4934   34.7988   -3.1971 C   0  0  0  0  0  0  0  0  0  0  0  0
  -88.6472   35.5067   -2.9276 C   0  0  0  0  0  0  0  0  0  0  0  0
  -89.3276   36.2154   -3.8765 C   0  0  0  0  0  0  0  0  0  0  0  0
  -88.9162   36.2786   -5.1761 C   0  0  0  0  0  0  0  0  0  0  0  0
  -87.7606   35.5796   -5.4859 C   0  0  0  0  0  0  0  0  0  0  0  0
  -87.0669   34.8533   -4.5042 C   0  0  0  0  0  0  0  0  0  0  0  0
  -89.5987   36.9929   -6.1487 O   0  0  0  0  0  0  0  0  0  0  0  0
  -89.8296   36.6464   -7.4620 C   0  0  0  0  0  0  0  0  0  0  0  0
  -90.8272   35.5774   -7.6901 C   0  0  0  0  0  0  0  0  0  0  0  0
  -90.8895   34.9686   -8.9182 C   0  0  0  0  0  0  0  0  0  0  0  0
  -91.7866   33.9631   -9.1884 C   0  0  0  0  0  0  0  0  0  0  0  0
  -92.6415   33.5611   -8.1973 C   0  0  0  0  0  0  0  0  0  0  0  0
  -92.6162   34.1502   -6.9316 C   0  0  0  0  0  0  0  0  0  0  0  0
  -91.6989   35.1541   -6.7096 C   0  0  0  0  0  0  0  0  0  0  0  0
 21 22  1  0  0  0
 22 19  1  0  0  0
 19 20  2  0  0  0
 19  1  1  0  0  0
  1  2  2  0  0  0
  2  3  1  0  0  0
  3  4  2  0  0  0
  4  5  1  0  0  0
  5  6  2  0  0  0
  6 23  1  0  0  0
 23 25  1  0  0  0
 25 26  2  0  0  0
 26 27  1  0  0  0
 27 28  2  0  0  0
 28 31  1  0  0  0
 31 32  1  0  0  0
 32 33  1  0  0  0
 33 34  2  0  0  0
 34 35  1  0  0  0
 35 36  2  0  0  0
 36 37  1  0  0  0
 37 38  2  0  0  0
 28 29  1  0  0  0
 29 30  2  0  0  0
  6 13  1  0  0  0
 13 14  2  0  0  0
 14 15  1  0  0  0
 15 16  2  0  0  0
 16 17  1  0  0  0
 17 18  2  0  0  0
  5  7  1  0  0  0
  7  8  2  0  0  0
  7  9  1  0  0  0
  9 10  1  0  0  0
 10 11  2  0  0  0
 11  1  1  0  0  0
 10  4  1  0  0  0
 30 25  1  0  0  0
 18 13  1  0  0  0
 38 33  1  0  0  0
 23 24  1  0  0  0
  9 12  1  0  0  0
M  END
> <minimizedAffinity>
-8.61187

> <CNNscore>
0.6021295786

> <CNNaffinity>
6.8862166405

> <CNN_VS>
4.1463947296

> <CNNaffinity_variance>
0.2819705606

$$$$
[H]c1c([H])c([H])c(/C(=C2/C(=O)N([H])c3c([H])c(C(=O)OC([H])([H])[H])c([H])c([H])c32)N([H])c2c([H])c([H])c(OC([H])([H])c3c([H])c([H])c([H])c([H])c3[H])c([H])c2[H])c([H])c1[H]


 38 42  0  0  0  0  0  0  0  0999 V2000
  -85.1659   31.6360    0.7273 C   0  0  0  0  0  0  0  0  0  0  0  0
  -86.3694   30.9680    0.5751 C   0  0  0  0  0  0  0  0  0  0  0  0
  -87.2172   31.2058   -0.4797 C   0  0  0  0  0  0  0  0  0  0  0  0
  -86.8674   32.1352   -1.4240 C   0  0  0  0  0  0  0  0  0  0  0  0
  -87.5457   32.6400   -2.6112 C   0  0  0  0  0  0  0  0  0  0  0  0
  -88.6343   32.1870   -3.2292 C   0  0  0  0  0  0  0  0  0  0  0  0
  -86.6646   33.6899   -3.1789 C   0  0  0  0  0  0  0  0  0  0  0  0
  -86.8842   34.3640   -4.1862 O   0  0  0  0  0  0  0  0  0  0  0  0
  -85.5177   33.7594   -2.3260 N   0  0  0  0  0  0  0  0  0  0  0  0
  -85.6590   32.8287   -1.2950 C   0  0  0  0  0  0  0  0  0  0  0  0
  -84.8361   32.5646   -0.2258 C   0  0  0  0  0  0  0  0  0  0  0  0
  -84.7330   34.4337   -2.5147 H   0  0  0  0  0  0  0  0  0  0  0  0
  -89.2201   30.9193   -2.8489 C   0  0  0  0  0  0  0  0  0  0  0  0
  -90.4796   30.9428   -2.2254 C   0  0  0  0  0  0  0  0  0  0  0  0
  -91.1108   29.8013   -1.8010 C   0  0  0  0  0  0  0  0  0  0  0  0
  -90.4820   28.5910   -1.9963 C   0  0  0  0  0  0  0  0  0  0  0  0
  -89.2406   28.5641   -2.6106 C   0  0  0  0  0  0  0  0  0  0  0  0
  -88.6130   29.7057   -3.0331 C   0  0  0  0  0  0  0  0  0  0  0  0
  -84.2730   31.3742    1.8483 C   0  0  0  0  0  0  0  0  0  0  0  0
  -84.5362   31.7681    3.0031 O   0  0  0  0  0  0  0  0  0  0  0  0
  -82.9024   29.3263    1.9724 C   0  0  0  0  0  0  0  0  0  0  0  0
  -83.1064   30.6766    1.6442 O   0  0  0  0  0  0  0  0  0  0  0  0
  -89.0775   32.9159   -4.3578 N   0  0  0  0  0  0  0  0  0  0  0  0
  -88.9237   32.3433   -5.2677 H   0  0  0  0  0  0  0  0  0  0  0  0
  -89.6107   34.1799   -4.5123 C   0  0  0  0  0  0  0  0  0  0  0  0
  -89.5262   34.7471   -5.7677 C   0  0  0  0  0  0  0  0  0  0  0  0
  -89.9943   35.9976   -6.0555 C   0  0  0  0  0  0  0  0  0  0  0  0
  -90.5865   36.7903   -5.1158 C   0  0  0  0  0  0  0  0  0  0  0  0
  -90.6893   36.2551   -3.8417 C   0  0  0  0  0  0  0  0  0  0  0  0
  -90.2054   34.9685   -3.5542 C   0  0  0  0  0  0  0  0  0  0  0  0
  -91.0641   38.0616   -5.3947 O   0  0  0  0  0  0  0  0  0  0  0  0
  -90.6781   39.2623   -4.8404 C   0  0  0  0  0  0  0  0  0  0  0  0
  -89.2310   39.4254   -4.5774 C   0  0  0  0  0  0  0  0  0  0  0  0
  -88.7790   39.4140   -3.2818 C   0  0  0  0  0  0  0  0  0  0  0  0
  -87.4466   39.5504   -2.9736 C   0  0  0  0  0  0  0  0  0  0  0  0
  -86.5478   39.7016   -3.9954 C   0  0  0  0  0  0  0  0  0  0  0  0
  -86.9593   39.7194   -5.3296 C   0  0  0  0  0  0  0  0  0  0  0  0
  -88.3055   39.5790   -5.5874 C   0  0  0  0  0  0  0  0  0  0  0  0
 21 22  1  0  0  0
 22 19  1  0  0  0
 19 20  2  0  0  0
 19  1  1  0  0  0
  1  2  2  0  0  0
  2  3  1  0  0  0
  3  4  2  0  0  0
  4  5  1  0  0  0
  5  6  2  0  0  0
  6 23  1  0  0  0
 23 25  1  0  0  0
 25 26  2  0  0  0
 26 27  1  0  0  0
 27 28  2  0  0  0
 28 31  1  0  0  0
 31 32  1  0  0  0
 32 33  1  0  0  0
 33 34  2  0  0  0
 34 35  1  0  0  0
 35 36  2  0  0  0
 36 37  1  0  0  0
 37 38  2  0  0  0
 28 29  1  0  0  0
 29 30  2  0  0  0
  6 13  1  0  0  0
 13 14  2  0  0  0
 14 15  1  0  0  0
 15 16  2  0  0  0
 16 17  1  0  0  0
 17 18  2  0  0  0
  5  7  1  0  0  0
  7  8  2  0  0  0
  7  9  1  0  0  0
  9 10  1  0  0  0
 10 11  2  0  0  0
 11  1  1  0  0  0
 10  4  1  0  0  0
 30 25  1  0  0  0
 18 13  1  0  0  0
 38 33  1  0  0  0
 23 24  1  0  0  0
  9 12  1  0  0  0
M  END
> <minimizedAffinity>
-7.79754

> <CNNscore>
0.2505215406

> <CNNaffinity>
6.2442998886

> <CNN_VS>
1.5643316507

> <CNNaffinity_variance>
0.3889096379

$$$$
[H]c1c([H])c([H])c(/C(=C2/C(=O)N([H])c3c([H])c(C(=O)OC([H])([H])[H])c([H])c([H])c32)N([H])c2c([H])c([H])c(OC([H])([H])c3c([H])c([H])c([H])c([H])c3[H])c([H])c2[H])c([H])c1[H]


 38 42  0  0  0  0  0  0  0  0999 V2000
  -87.5657   28.2409    1.0771 C   0  0  0  0  0  0  0  0  0  0  0  0
  -88.5776   28.6242    0.2129 C   0  0  0  0  0  0  0  0  0  0  0  0
  -88.5180   29.7805   -0.5268 C   0  0  0  0  0  0  0  0  0  0  0  0
  -87.4190   30.5914   -0.4149 C   0  0  0  0  0  0  0  0  0  0  0  0
  -87.0739   31.8748   -1.0133 C   0  0  0  0  0  0  0  0  0  0  0  0
  -87.6601   32.5375   -2.0081 C   0  0  0  0  0  0  0  0  0  0  0  0
  -85.7633   32.2637   -0.4370 C   0  0  0  0  0  0  0  0  0  0  0  0
  -85.1302   33.2907   -0.6850 O   0  0  0  0  0  0  0  0  0  0  0  0
  -85.3874   31.2119    0.4576 N   0  0  0  0  0  0  0  0  0  0  0  0
  -86.3819   30.2321    0.4530 C   0  0  0  0  0  0  0  0  0  0  0  0
  -86.4767   29.0676    1.1778 C   0  0  0  0  0  0  0  0  0  0  0  0
  -84.4858   31.2465    0.9978 H   0  0  0  0  0  0  0  0  0  0  0  0
  -88.7042   31.9122   -2.7914 C   0  0  0  0  0  0  0  0  0  0  0  0
  -90.0314   32.0731   -2.3574 C   0  0  0  0  0  0  0  0  0  0  0  0
  -91.0928   31.5002   -3.0107 C   0  0  0  0  0  0  0  0  0  0  0  0
  -90.8419   30.7407   -4.1326 C   0  0  0  0  0  0  0  0  0  0  0  0
  -89.5349   30.5801   -4.5632 C   0  0  0  0  0  0  0  0  0  0  0  0
  -88.4774   31.1534   -3.9086 C   0  0  0  0  0  0  0  0  0  0  0  0
  -87.6378   27.0112    1.8549 C   0  0  0  0  0  0  0  0  0  0  0  0
  -86.6161   26.3524    2.1377 O   0  0  0  0  0  0  0  0  0  0  0  0
  -89.6324   25.5727    1.6548 C   0  0  0  0  0  0  0  0  0  0  0  0
  -88.8561   26.5519    2.2957 O   0  0  0  0  0  0  0  0  0  0  0  0
  -87.1063   33.7929   -2.3523 N   0  0  0  0  0  0  0  0  0  0  0  0
  -86.2462   34.0160   -1.7279 H   0  0  0  0  0  0  0  0  0  0  0  0
  -87.4647   34.7605   -3.2694 C   0  0  0  0  0  0  0  0  0  0  0  0
  -87.9377   35.9560   -2.7674 C   0  0  0  0  0  0  0  0  0  0  0  0
  -88.3457   36.9902   -3.5609 C   0  0  0  0  0  0  0  0  0  0  0  0
  -88.3175   36.9210   -4.9235 C   0  0  0  0  0  0  0  0  0  0  0  0
  -87.8487   35.7350   -5.4655 C   0  0  0  0  0  0  0  0  0  0  0  0
  -87.4312   34.6764   -4.6425 C   0  0  0  0  0  0  0  0  0  0  0  0
  -88.7303   37.9628   -5.7397 O   0  0  0  0  0  0  0  0  0  0  0  0
  -90.0023   38.2509   -6.1835 C   0  0  0  0  0  0  0  0  0  0  0  0
  -91.0309   38.4451   -5.1375 C   0  0  0  0  0  0  0  0  0  0  0  0
  -91.9883   37.4800   -4.9505 C   0  0  0  0  0  0  0  0  0  0  0  0
  -92.9634   37.5976   -3.9891 C   0  0  0  0  0  0  0  0  0  0  0  0
  -92.9742   38.7143   -3.1969 C   0  0  0  0  0  0  0  0  0  0  0  0
  -92.0212   39.7234   -3.3492 C   0  0  0  0  0  0  0  0  0  0  0  0
  -91.0641   39.5595   -4.3268 C   0  0  0  0  0  0  0  0  0  0  0  0
 21 22  1  0  0  0
 22 19  1  0  0  0
 19 20  2  0  0  0
 19  1  1  0  0  0
  1  2  2  0  0  0
  2  3  1  0  0  0
  3  4  2  0  0  0
  4  5  1  0  0  0
  5  6  2  0  0  0
  6 23  1  0  0  0
 23 25  1  0  0  0
 25 26  2  0  0  0
 26 27  1  0  0  0
 27 28  2  0  0  0
 28 31  1  0  0  0
 31 32  1  0  0  0
 32 33  1  0  0  0
 33 34  2  0  0  0
 34 35  1  0  0  0
 35 36  2  0  0  0
 36 37  1  0  0  0
 37 38  2  0  0  0
 28 29  1  0  0  0
 29 30  2  0  0  0
  6 13  1  0  0  0
 13 14  2  0  0  0
 14 15  1  0  0  0
 15 16  2  0  0  0
 16 17  1  0  0  0
 17 18  2  0  0  0
  5  7  1  0  0  0
  7  8  2  0  0  0
  7  9  1  0  0  0
  9 10  1  0  0  0
 10 11  2  0  0  0
 11  1  1  0  0  0
 10  4  1  0  0  0
 30 25  1  0  0  0
 18 13  1  0  0  0
 38 33  1  0  0  0
 23 24  1  0  0  0
  9 12  1  0  0  0
M  END
> <minimizedAffinity>
-7.20172

> <CNNscore>
0.1926723123

> <CNNaffinity>
6.3448152542

> <CNN_VS>
1.2224702835

> <CNNaffinity_variance>
0.4555159509

$$$$
[H]c1c([H])c([H])c(/C(=C2/C(=O)N([H])c3c([H])c(C(=O)OC([H])([H])[H])c([H])c([H])c32)N([H])c2c([H])c([H])c(OC([H])([H])c3c([H])c([H])c([H])c([H])c3[H])c([H])c2[H])c([H])c1[H]


 38 42  0  0  0  0  0  0  0  0999 V2000
  -84.5192   30.2211    1.0244 C   0  0  0  0  0  0  0  0  0  0  0  0
  -85.8027   29.7083    0.9380 C   0  0  0  0  0  0  0  0  0  0  0  0
  -86.8153   30.3609    0.2773 C   0  0  0  0  0  0  0  0  0  0  0  0
  -86.5559   31.5643   -0.3247 C   0  0  0  0  0  0  0  0  0  0  0  0
  -87.3980   32.5074   -1.0499 C   0  0  0  0  0  0  0  0  0  0  0  0
  -88.6403   32.3653   -1.5067 C   0  0  0  0  0  0  0  0  0  0  0  0
  -86.5293   33.6587   -1.3975 C   0  0  0  0  0  0  0  0  0  0  0  0
  -86.8675   34.6722   -2.0104 O   0  0  0  0  0  0  0  0  0  0  0  0
  -85.2299   33.3549   -0.8807 N   0  0  0  0  0  0  0  0  0  0  0  0
  -85.2693   32.1093   -0.2513 C   0  0  0  0  0  0  0  0  0  0  0  0
  -84.2811   31.4278    0.4189 C   0  0  0  0  0  0  0  0  0  0  0  0
  -84.4231   34.0191   -0.9983 H   0  0  0  0  0  0  0  0  0  0  0  0
  -89.2895   31.0721   -1.4776 C   0  0  0  0  0  0  0  0  0  0  0  0
  -90.1049   30.7755   -0.3719 C   0  0  0  0  0  0  0  0  0  0  0  0
  -90.7439   29.5697   -0.2324 C   0  0  0  0  0  0  0  0  0  0  0  0
  -90.5761   28.6192   -1.2156 C   0  0  0  0  0  0  0  0  0  0  0  0
  -89.7731   28.9082   -2.3070 C   0  0  0  0  0  0  0  0  0  0  0  0
  -89.1365   30.1132   -2.4432 C   0  0  0  0  0  0  0  0  0  0  0  0
  -83.4521   29.5194    1.7252 C   0  0  0  0  0  0  0  0  0  0  0  0
  -82.2685   29.9135    1.6822 O   0  0  0  0  0  0  0  0  0  0  0  0
  -82.8082   27.4144    2.8398 C   0  0  0  0  0  0  0  0  0  0  0  0
  -83.7408   28.3922    2.4569 O   0  0  0  0  0  0  0  0  0  0  0  0
  -89.2137   33.4842   -2.1553 N   0  0  0  0  0  0  0  0  0  0  0  0
  -89.5234   34.2302   -1.4293 H   0  0  0  0  0  0  0  0  0  0  0  0
  -89.4750   33.7730   -3.4797 C   0  0  0  0  0  0  0  0  0  0  0  0
  -89.9223   35.0466   -3.7676 C   0  0  0  0  0  0  0  0  0  0  0  0
  -90.2371   35.4602   -5.0307 C   0  0  0  0  0  0  0  0  0  0  0  0
  -90.1335   34.6389   -6.1156 C   0  0  0  0  0  0  0  0  0  0  0  0
  -89.6876   33.3508   -5.8664 C   0  0  0  0  0  0  0  0  0  0  0  0
  -89.3660   32.9335   -4.5646 C   0  0  0  0  0  0  0  0  0  0  0  0
  -90.4514   35.0460   -7.4021 O   0  0  0  0  0  0  0  0  0  0  0  0
  -91.0507   34.3188   -8.4071 C   0  0  0  0  0  0  0  0  0  0  0  0
  -92.5038   34.0788   -8.2626 C   0  0  0  0  0  0  0  0  0  0  0  0
  -93.1836   34.6778   -7.2321 C   0  0  0  0  0  0  0  0  0  0  0  0
  -94.5347   34.5023   -7.0511 C   0  0  0  0  0  0  0  0  0  0  0  0
  -95.2173   33.7042   -7.9296 C   0  0  0  0  0  0  0  0  0  0  0  0
  -94.5695   33.0733   -8.9936 C   0  0  0  0  0  0  0  0  0  0  0  0
  -93.2144   33.2803   -9.1330 C   0  0  0  0  0  0  0  0  0  0  0  0
 21 22  1  0  0  0
 22 19  1  0  0  0
 19 20  2  0  0  0
 19  1  1  0  0  0
  1  2  2  0  0  0
  2  3  1  0  0  0
  3  4  2  0  0  0
  4  5  1  0  0  0
  5  6  2  0  0  0
  6 23  1  0  0  0
 23 25  1  0  0  0
 25 26  2  0  0  0
 26 27  1  0  0  0
 27 28  2  0  0  0
 28 31  1  0  0  0
 31 32  1  0  0  0
 32 33  1  0  0  0
 33 34  2  0  0  0
 34 35  1  0  0  0
 35 36  2  0  0  0
 36 37  1  0  0  0
 37 38  2  0  0  0
 28 29  1  0  0  0
 29 30  2  0  0  0
  6 13  1  0  0  0
 13 14  2  0  0  0
 14 15  1  0  0  0
 15 16  2  0  0  0
 16 17  1  0  0  0
 17 18  2  0  0  0
  5  7  1  0  0  0
  7  8  2  0  0  0
  7  9  1  0  0  0
  9 10  1  0  0  0
 10 11  2  0  0  0
 11  1  1  0  0  0
 10  4  1  0  0  0
 30 25  1  0  0  0
 18 13  1  0  0  0
 38 33  1  0  0  0
 23 24  1  0  0  0
  9 12  1  0  0  0
M  END
> <minimizedAffinity>
-7.92471

> <CNNscore>
0.1595738828

> <CNNaffinity>
5.9034972191

> <CNN_VS>
0.9420439601

> <CNNaffinity_variance>
0.2973997295

$$$$
[H]c1c([H])c([H])c(/C(=C2/C(=O)N([H])c3c([H])c(C(=O)OC([H])([H])[H])c([H])c([H])c32)N([H])c2c([H])c([H])c(OC([H])([H])c3c([H])c([H])c([H])c([H])c3[H])c([H])c2[H])c([H])c1[H]


 38 42  0  0  0  0  0  0  0  0999 V2000
  -92.7466   23.9798   -0.7703 C   0  0  0  0  0  0  0  0  0  0  0  0
  -92.2884   24.4877    0.4338 C   0  0  0  0  0  0  0  0  0  0  0  0
  -91.3642   25.5020    0.5031 C   0  0  0  0  0  0  0  0  0  0  0  0
  -90.8722   26.0405   -0.6570 C   0  0  0  0  0  0  0  0  0  0  0  0
  -89.8762   27.0709   -0.9227 C   0  0  0  0  0  0  0  0  0  0  0  0
  -89.2953   27.9310   -0.0891 C   0  0  0  0  0  0  0  0  0  0  0  0
  -89.7450   27.1522   -2.3983 C   0  0  0  0  0  0  0  0  0  0  0  0
  -88.9972   27.9026   -3.0265 O   0  0  0  0  0  0  0  0  0  0  0  0
  -90.6563   26.1901   -2.9384 N   0  0  0  0  0  0  0  0  0  0  0  0
  -91.3138   25.5454   -1.8891 C   0  0  0  0  0  0  0  0  0  0  0  0
  -92.2394   24.5292   -1.9194 C   0  0  0  0  0  0  0  0  0  0  0  0
  -90.7566   26.0508   -3.9760 H   0  0  0  0  0  0  0  0  0  0  0  0
  -89.7624   28.0605    1.2747 C   0  0  0  0  0  0  0  0  0  0  0  0
  -89.0164   27.4269    2.2834 C   0  0  0  0  0  0  0  0  0  0  0  0
  -89.3858   27.4640    3.6039 C   0  0  0  0  0  0  0  0  0  0  0  0
  -90.5308   28.1491    3.9472 C   0  0  0  0  0  0  0  0  0  0  0  0
  -91.2686   28.7750    2.9555 C   0  0  0  0  0  0  0  0  0  0  0  0
  -90.8969   28.7359    1.6379 C   0  0  0  0  0  0  0  0  0  0  0  0
  -93.7290   22.9059   -0.8325 C   0  0  0  0  0  0  0  0  0  0  0  0
  -94.7946   22.9525   -0.1840 O   0  0  0  0  0  0  0  0  0  0  0  0
  -93.8166   20.4820   -1.2853 C   0  0  0  0  0  0  0  0  0  0  0  0
  -93.4902   21.8060   -1.6215 O   0  0  0  0  0  0  0  0  0  0  0  0
  -88.3304   28.8045   -0.6434 N   0  0  0  0  0  0  0  0  0  0  0  0
  -87.3584   28.3222   -0.6881 H   0  0  0  0  0  0  0  0  0  0  0  0
  -88.3863   30.1118   -1.0834 C   0  0  0  0  0  0  0  0  0  0  0  0
  -89.2971   30.9437   -0.4642 C   0  0  0  0  0  0  0  0  0  0  0  0
  -89.4708   32.2528   -0.8133 C   0  0  0  0  0  0  0  0  0  0  0  0
  -88.7515   32.8448   -1.8104 C   0  0  0  0  0  0  0  0  0  0  0  0
  -87.8263   32.0407   -2.4566 C   0  0  0  0  0  0  0  0  0  0  0  0
  -87.6539   30.6956   -2.0916 C   0  0  0  0  0  0  0  0  0  0  0  0
  -88.9195   34.1717   -2.1752 O   0  0  0  0  0  0  0  0  0  0  0  0
  -89.2825   34.6834   -3.4017 C   0  0  0  0  0  0  0  0  0  0  0  0
  -88.5454   35.8848   -3.8526 C   0  0  0  0  0  0  0  0  0  0  0  0
  -87.3787   35.7306   -4.5583 C   0  0  0  0  0  0  0  0  0  0  0  0
  -86.6545   36.8066   -5.0130 C   0  0  0  0  0  0  0  0  0  0  0  0
  -87.1170   38.0683   -4.7505 C   0  0  0  0  0  0  0  0  0  0  0  0
  -88.2988   38.2760   -4.0364 C   0  0  0  0  0  0  0  0  0  0  0  0
  -88.9891   37.1656   -3.6018 C   0  0  0  0  0  0  0  0  0  0  0  0
 21 22  1  0  0  0
 22 19  1  0  0  0
 19 20  2  0  0  0
 19  1  1  0  0  0
  1  2  2  0  0  0
  2  3  1  0  0  0
  3  4  2  0  0  0
  4  5  1  0  0  0
  5  6  2  0  0  0
  6 23  1  0  0  0
 23 25  1  0  0  0
 25 26  2  0  0  0
 26 27  1  0  0  0
 27 28  2  0  0  0
 28 31  1  0  0  0
 31 32  1  0  0  0
 32 33  1  0  0  0
 33 34  2  0  0  0
 34 35  1  0  0  0
 35 36  2  0  0  0
 36 37  1  0  0  0
 37 38  2  0  0  0
 28 29  1  0  0  0
 29 30  2  0  0  0
  6 13  1  0  0  0
 13 14  2  0  0  0
 14 15  1  0  0  0
 15 16  2  0  0  0
 16 17  1  0  0  0
 17 18  2  0  0  0
  5  7  1  0  0  0
  7  8  2  0  0  0
  7  9  1  0  0  0
  9 10  1  0  0  0
 10 11  2  0  0  0
 11  1  1  0  0  0
 10  4  1  0  0  0
 30 25  1  0  0  0
 18 13  1  0  0  0
 38 33  1  0  0  0
 23 24  1  0  0  0
  9 12  1  0  0  0
M  END
> <minimizedAffinity>
-7.75934

> <CNNscore>
0.1353826821

> <CNNaffinity>
5.6461906433

> <CNN_VS>
0.7643964291

> <CNNaffinity_variance>
0.3044045568

$$$$
[H]c1c([H])c([H])c(/C(=C2/C(=O)N([H])c3c([H])c(C(=O)OC([H])([H])[H])c([H])c([H])c32)N([H])c2c([H])c([H])c(OC([H])([H])c3c([H])c([H])c([H])c([H])c3[H])c([H])c2[H])c([H])c1[H]


 38 42  0  0  0  0  0  0  0  0999 V2000
  -92.6432   25.6520   -1.7278 C   0  0  0  0  0  0  0  0  0  0  0  0
  -92.5930   25.4941   -0.3529 C   0  0  0  0  0  0  0  0  0  0  0  0
  -91.4253   25.6123    0.3614 C   0  0  0  0  0  0  0  0  0  0  0  0
  -90.2608   25.8997   -0.3012 C   0  0  0  0  0  0  0  0  0  0  0  0
  -88.8809   26.0455    0.1451 C   0  0  0  0  0  0  0  0  0  0  0  0
  -88.3880   26.1334    1.3786 C   0  0  0  0  0  0  0  0  0  0  0  0
  -88.0736   26.2963   -1.0741 C   0  0  0  0  0  0  0  0  0  0  0  0
  -86.8551   26.4696   -1.1225 O   0  0  0  0  0  0  0  0  0  0  0  0
  -88.9905   26.2963   -2.1728 N   0  0  0  0  0  0  0  0  0  0  0  0
  -90.2796   26.0613   -1.6910 C   0  0  0  0  0  0  0  0  0  0  0  0
  -91.4670   25.9352   -2.3725 C   0  0  0  0  0  0  0  0  0  0  0  0
  -88.6648   26.4561   -3.1599 H   0  0  0  0  0  0  0  0  0  0  0  0
  -89.2737   26.2784    2.5141 C   0  0  0  0  0  0  0  0  0  0  0  0
  -89.6398   25.1131    3.2097 C   0  0  0  0  0  0  0  0  0  0  0  0
  -90.4946   25.1355    4.2822 C   0  0  0  0  0  0  0  0  0  0  0  0
  -91.0094   26.3476    4.6874 C   0  0  0  0  0  0  0  0  0  0  0  0
  -90.6506   27.4982    4.0042 C   0  0  0  0  0  0  0  0  0  0  0  0
  -89.7968   27.4723    2.9336 C   0  0  0  0  0  0  0  0  0  0  0  0
  -93.8874   25.5272   -2.4752 C   0  0  0  0  0  0  0  0  0  0  0  0
  -94.5634   24.4780   -2.4544 O   0  0  0  0  0  0  0  0  0  0  0  0
  -94.5442   26.5607   -4.6172 C   0  0  0  0  0  0  0  0  0  0  0  0
  -94.3416   26.5840   -3.2277 O   0  0  0  0  0  0  0  0  0  0  0  0
  -86.9824   26.2397    1.4982 N   0  0  0  0  0  0  0  0  0  0  0  0
  -86.5142   25.2660    1.3874 H   0  0  0  0  0  0  0  0  0  0  0  0
  -86.1369   27.3001    1.7561 C   0  0  0  0  0  0  0  0  0  0  0  0
  -86.6675   28.5687    1.6372 C   0  0  0  0  0  0  0  0  0  0  0  0
  -85.9391   29.7055    1.8437 C   0  0  0  0  0  0  0  0  0  0  0  0
  -84.6184   29.6750    2.1860 C   0  0  0  0  0  0  0  0  0  0  0  0
  -84.0494   28.4181    2.3146 C   0  0  0  0  0  0  0  0  0  0  0  0
  -84.8055   27.2542    2.1005 C   0  0  0  0  0  0  0  0  0  0  0  0
  -83.8679   30.8214    2.3966 O   0  0  0  0  0  0  0  0  0  0  0  0
  -83.2489   31.6234    1.4630 C   0  0  0  0  0  0  0  0  0  0  0  0
  -84.1182   32.1861    0.4058 C   0  0  0  0  0  0  0  0  0  0  0  0
  -85.4762   32.2167    0.5995 C   0  0  0  0  0  0  0  0  0  0  0  0
  -86.3348   32.7357   -0.3399 C   0  0  0  0  0  0  0  0  0  0  0  0
  -85.8125   33.2361   -1.5024 C   0  0  0  0  0  0  0  0  0  0  0  0
  -84.4374   33.2271   -1.7453 C   0  0  0  0  0  0  0  0  0  0  0  0
  -83.6180   32.6962   -0.7731 C   0  0  0  0  0  0  0  0  0  0  0  0
 21 22  1  0  0  0
 22 19  1  0  0  0
 19 20  2  0  0  0
 19  1  1  0  0  0
  1  2  2  0  0  0
  2  3  1  0  0  0
  3  4  2  0  0  0
  4  5  1  0  0  0
  5  6  2  0  0  0
  6 23  1  0  0  0
 23 25  1  0  0  0
 25 26  2  0  0  0
 26 27  1  0  0  0
 27 28  2  0  0  0
 28 31  1  0  0  0
 31 32  1  0  0  0
 32 33  1  0  0  0
 33 34  2  0  0  0
 34 35  1  0  0  0
 35 36  2  0  0  0
 36 37  1  0  0  0
 37 38  2  0  0  0
 28 29  1  0  0  0
 29 30  2  0  0  0
  6 13  1  0  0  0
 13 14  2  0  0  0
 14 15  1  0  0  0
 15 16  2  0  0  0
 16 17  1  0  0  0
 17 18  2  0  0  0
  5  7  1  0  0  0
  7  8  2  0  0  0
  7  9  1  0  0  0
  9 10  1  0  0  0
 10 11  2  0  0  0
 11  1  1  0  0  0
 10  4  1  0  0  0
 30 25  1  0  0  0
 18 13  1  0  0  0
 38 33  1  0  0  0
 23 24  1  0  0  0
  9 12  1  0  0  0
M  END
> <minimizedAffinity>
-8.54244

> <CNNscore>
0.1297552735

> <CNNaffinity>
6.3175516129

> <CNN_VS>
0.8197356462

> <CNNaffinity_variance>
0.2047546655

$$$$
[H]c1c([H])c([H])c(/C(=C2/C(=O)N([H])c3c([H])c(C(=O)OC([H])([H])[H])c([H])c([H])c32)N([H])c2c([H])c([H])c(OC([H])([H])c3c([H])c([H])c([H])c([H])c3[H])c([H])c2[H])c([H])c1[H]


 38 42  0  0  0  0  0  0  0  0999 V2000
  -84.3857   30.1405    1.0825 C   0  0  0  0  0  0  0  0  0  0  0  0
  -85.6678   29.6209    1.0200 C   0  0  0  0  0  0  0  0  0  0  0  0
  -86.7055   30.2872    0.4143 C   0  0  0  0  0  0  0  0  0  0  0  0
  -86.4738   31.5120   -0.1550 C   0  0  0  0  0  0  0  0  0  0  0  0
  -87.3451   32.4721   -0.8208 C   0  0  0  0  0  0  0  0  0  0  0  0
  -88.6005   32.3357   -1.2422 C   0  0  0  0  0  0  0  0  0  0  0  0
  -86.4959   33.6413   -1.1570 C   0  0  0  0  0  0  0  0  0  0  0  0
  -86.8605   34.6719   -1.7244 O   0  0  0  0  0  0  0  0  0  0  0  0
  -85.1785   33.3306   -0.6925 N   0  0  0  0  0  0  0  0  0  0  0  0
  -85.1891   32.0644   -0.1044 C   0  0  0  0  0  0  0  0  0  0  0  0
  -84.1754   31.3686    0.5107 C   0  0  0  0  0  0  0  0  0  0  0  0
  -84.3804   34.0046   -0.8133 H   0  0  0  0  0  0  0  0  0  0  0  0
  -89.2396   31.0371   -1.2359 C   0  0  0  0  0  0  0  0  0  0  0  0
  -88.9535   30.1633   -2.2989 C   0  0  0  0  0  0  0  0  0  0  0  0
  -89.5260   28.9211   -2.4036 C   0  0  0  0  0  0  0  0  0  0  0  0
  -90.4127   28.5216   -1.4277 C   0  0  0  0  0  0  0  0  0  0  0  0
  -90.6970   29.3804   -0.3783 C   0  0  0  0  0  0  0  0  0  0  0  0
  -90.1237   30.6200   -0.2769 C   0  0  0  0  0  0  0  0  0  0  0  0
  -83.2918   29.4243    1.7249 C   0  0  0  0  0  0  0  0  0  0  0  0
  -82.1093   29.8133    1.6339 O   0  0  0  0  0  0  0  0  0  0  0  0
  -82.6027   27.3179    2.8093 C   0  0  0  0  0  0  0  0  0  0  0  0
  -83.5533   28.2885    2.4537 O   0  0  0  0  0  0  0  0  0  0  0  0
  -89.2020   33.4710   -1.8342 N   0  0  0  0  0  0  0  0  0  0  0  0
  -89.4538   34.2088   -1.0780 H   0  0  0  0  0  0  0  0  0  0  0  0
  -89.5470   33.7838   -3.1338 C   0  0  0  0  0  0  0  0  0  0  0  0
  -89.0820   32.9442   -4.1256 C   0  0  0  0  0  0  0  0  0  0  0  0
  -89.3311   33.1465   -5.4533 C   0  0  0  0  0  0  0  0  0  0  0  0
  -90.0652   34.2040   -5.9061 C   0  0  0  0  0  0  0  0  0  0  0  0
  -90.5495   35.0703   -4.9392 C   0  0  0  0  0  0  0  0  0  0  0  0
  -90.2887   34.8551   -3.5761 C   0  0  0  0  0  0  0  0  0  0  0  0
  -90.3237   34.4212   -7.2507 O   0  0  0  0  0  0  0  0  0  0  0  0
  -90.6973   35.5923   -7.8728 C   0  0  0  0  0  0  0  0  0  0  0  0
  -89.6255   36.5907   -8.0841 C   0  0  0  0  0  0  0  0  0  0  0  0
  -88.4804   36.5152   -7.3319 C   0  0  0  0  0  0  0  0  0  0  0  0
  -87.4456   37.4061   -7.4884 C   0  0  0  0  0  0  0  0  0  0  0  0
  -87.5675   38.3970   -8.4255 C   0  0  0  0  0  0  0  0  0  0  0  0
  -88.7133   38.5147   -9.2149 C   0  0  0  0  0  0  0  0  0  0  0  0
  -89.7230   37.5975   -9.0206 C   0  0  0  0  0  0  0  0  0  0  0  0
 21 22  1  0  0  0
 22 19  1  0  0  0
 19 20  2  0  0  0
 19  1  1  0  0  0
  1  2  2  0  0  0
  2  3  1  0  0  0
  3  4  2  0  0  0
  4  5  1  0  0  0
  5  6  2  0  0  0
  6 23  1  0  0  0
 23 25  1  0  0  0
 25 26  2  0  0  0
 26 27  1  0  0  0
 27 28  2  0  0  0
 28 31  1  0  0  0
 31 32  1  0  0  0
 32 33  1  0  0  0
 33 34  2  0  0  0
 34 35  1  0  0  0
 35 36  2  0  0  0
 36 37  1  0  0  0
 37 38  2  0  0  0
 28 29  1  0  0  0
 29 30  2  0  0  0
  6 13  1  0  0  0
 13 14  2  0  0  0
 14 15  1  0  0  0
 15 16  2  0  0  0
 16 17  1  0  0  0
 17 18  2  0  0  0
  5  7  1  0  0  0
  7  8  2  0  0  0
  7  9  1  0  0  0
  9 10  1  0  0  0
 10 11  2  0  0  0
 11  1  1  0  0  0
 10  4  1  0  0  0
 30 25  1  0  0  0
 18 13  1  0  0  0
 38 33  1  0  0  0
 23 24  1  0  0  0
  9 12  1  0  0  0
M  END
> <minimizedAffinity>
-7.94489

> <CNNscore>
0.1200179011

> <CNNaffinity>
5.9754104614

> <CNN_VS>
0.7171562314

> <CNNaffinity_variance>
0.2801496983

$$$$
[H]c1c([H])c([H])c(/C(=C2/C(=O)N([H])c3c([H])c(C(=O)OC([H])([H])[H])c([H])c([H])c32)N([H])c2c([H])c([H])c(OC([H])([H])c3c([H])c([H])c([H])c([H])c3[H])c([H])c2[H])c([H])c1[H]


 38 42  0  0  0  0  0  0  0  0999 V2000
  -84.5620   29.2790    1.2667 C   0  0  0  0  0  0  0  0  0  0  0  0
  -85.0388   29.8696    0.1083 C   0  0  0  0  0  0  0  0  0  0  0  0
  -86.2955   29.6164   -0.3859 C   0  0  0  0  0  0  0  0  0  0  0  0
  -87.1176   28.7502    0.2861 C   0  0  0  0  0  0  0  0  0  0  0  0
  -88.4578   28.2473    0.0117 C   0  0  0  0  0  0  0  0  0  0  0  0
  -89.3521   28.6494   -0.8887 C   0  0  0  0  0  0  0  0  0  0  0  0
  -88.7698   27.2821    1.0943 C   0  0  0  0  0  0  0  0  0  0  0  0
  -89.8099   26.6344    1.2204 O   0  0  0  0  0  0  0  0  0  0  0  0
  -87.6269   27.2571    1.9550 N   0  0  0  0  0  0  0  0  0  0  0  0
  -86.6622   28.1353    1.4577 C   0  0  0  0  0  0  0  0  0  0  0  0
  -85.3982   28.4126    1.9220 C   0  0  0  0  0  0  0  0  0  0  0  0
  -87.5963   26.6452    2.8098 H   0  0  0  0  0  0  0  0  0  0  0  0
  -89.1317   29.8589   -1.6524 C   0  0  0  0  0  0  0  0  0  0  0  0
  -88.5228   29.7334   -2.9130 C   0  0  0  0  0  0  0  0  0  0  0  0
  -88.2440   30.8175   -3.7057 C   0  0  0  0  0  0  0  0  0  0  0  0
  -88.5756   32.0724   -3.2436 C   0  0  0  0  0  0  0  0  0  0  0  0
  -89.1760   32.1999   -2.0015 C   0  0  0  0  0  0  0  0  0  0  0  0
  -89.4529   31.1153   -1.2125 C   0  0  0  0  0  0  0  0  0  0  0  0
  -83.2285   29.5567    1.7835 C   0  0  0  0  0  0  0  0  0  0  0  0
  -82.5293   28.6659    2.3084 O   0  0  0  0  0  0  0  0  0  0  0  0
  -82.4696   31.5244    0.5029 C   0  0  0  0  0  0  0  0  0  0  0  0
  -82.7135   30.8282    1.6980 O   0  0  0  0  0  0  0  0  0  0  0  0
  -90.5732   27.9367   -0.9379 N   0  0  0  0  0  0  0  0  0  0  0  0
  -91.0322   27.8955    0.0455 H   0  0  0  0  0  0  0  0  0  0  0  0
  -91.2402   27.2806   -1.9531 C   0  0  0  0  0  0  0  0  0  0  0  0
  -91.8679   28.0643   -2.9001 C   0  0  0  0  0  0  0  0  0  0  0  0
  -92.5791   27.5472   -3.9453 C   0  0  0  0  0  0  0  0  0  0  0  0
  -92.7260   26.2039   -4.1358 C   0  0  0  0  0  0  0  0  0  0  0  0
  -92.1096   25.3837   -3.2043 C   0  0  0  0  0  0  0  0  0  0  0  0
  -91.3802   25.9235   -2.1324 C   0  0  0  0  0  0  0  0  0  0  0  0
  -93.4464   25.6667   -5.1914 O   0  0  0  0  0  0  0  0  0  0  0  0
  -94.7842   25.3408   -5.2373 C   0  0  0  0  0  0  0  0  0  0  0  0
  -95.1321   24.1125   -5.9857 C   0  0  0  0  0  0  0  0  0  0  0  0
  -95.0929   24.1286   -7.3572 C   0  0  0  0  0  0  0  0  0  0  0  0
  -95.3949   23.0176   -8.1079 C   0  0  0  0  0  0  0  0  0  0  0  0
  -95.7448   21.8626   -7.4612 C   0  0  0  0  0  0  0  0  0  0  0  0
  -95.7989   21.7970   -6.0675 C   0  0  0  0  0  0  0  0  0  0  0  0
  -95.4874   22.9370   -5.3592 C   0  0  0  0  0  0  0  0  0  0  0  0
 21 22  1  0  0  0
 22 19  1  0  0  0
 19 20  2  0  0  0
 19  1  1  0  0  0
  1  2  2  0  0  0
  2  3  1  0  0  0
  3  4  2  0  0  0
  4  5  1  0  0  0
  5  6  2  0  0  0
  6 23  1  0  0  0
 23 25  1  0  0  0
 25 26  2  0  0  0
 26 27  1  0  0  0
 27 28  2  0  0  0
 28 31  1  0  0  0
 31 32  1  0  0  0
 32 33  1  0  0  0
 33 34  2  0  0  0
 34 35  1  0  0  0
 35 36  2  0  0  0
 36 37  1  0  0  0
 37 38  2  0  0  0
 28 29  1  0  0  0
 29 30  2  0  0  0
  6 13  1  0  0  0
 13 14  2  0  0  0
 14 15  1  0  0  0
 15 16  2  0  0  0
 16 17  1  0  0  0
 17 18  2  0  0  0
  5  7  1  0  0  0
  7  8  2  0  0  0
  7  9  1  0  0  0
  9 10  1  0  0  0
 10 11  2  0  0  0
 11  1  1  0  0  0
 10  4  1  0  0  0
 30 25  1  0  0  0
 18 13  1  0  0  0
 38 33  1  0  0  0
 23 24  1  0  0  0
  9 12  1  0  0  0
M  END
> <minimizedAffinity>
-8.30264

> <CNNscore>
0.0764638335

> <CNNaffinity>
5.6746420860

> <CNN_VS>
0.4339048862

> <CNNaffinity_variance>
0.4239729047

$$$$
[H]c1nc(N([H])[H])c([H])c([H])c1-c1c([H])c([H])c([H])c(C([H])([H])Oc2c([H])n([H])c3c([H])c(C(=O)OC([H])([H])[H])c([H])c([H])c23)c1[H]


 31 34  0  0  0  0  0  0  0  0999 V2000
  -90.3166   29.3877    0.2113 C   0  0  0  0  0  0  0  0  0  0  0  0
  -89.5719   30.5481   -0.4044 C   0  0  0  0  0  0  0  0  0  0  0  0
  -90.1681   31.4632   -1.2160 C   0  0  0  0  0  0  0  0  0  0  0  0
  -89.4288   32.5203   -1.7685 C   0  0  0  0  0  0  0  0  0  0  0  0
  -88.0954   32.6188   -1.4792 C   0  0  0  0  0  0  0  0  0  0  0  0
  -87.4446   31.7110   -0.6584 C   0  0  0  0  0  0  0  0  0  0  0  0
  -88.2115   30.6973   -0.1439 C   0  0  0  0  0  0  0  0  0  0  0  0
  -86.0281   31.8122   -0.3553 C   0  0  0  0  0  0  0  0  0  0  0  0
  -85.3463   30.8054    0.2890 C   0  0  0  0  0  0  0  0  0  0  0  0
  -83.9909   30.9060    0.5733 C   0  0  0  0  0  0  0  0  0  0  0  0
  -83.2868   32.0435    0.2067 C   0  0  0  0  0  0  0  0  0  0  0  0
  -81.8933   32.1629    0.4905 N   0  0  0  0  0  0  0  0  0  0  0  0
  -83.9740   33.0131   -0.4211 N   0  0  0  0  0  0  0  0  0  0  0  0
  -85.2876   32.9208   -0.6991 C   0  0  0  0  0  0  0  0  0  0  0  0
  -81.1386   31.9151   -0.1789 H   0  0  0  0  0  0  0  0  0  0  0  0
  -81.6107   32.5197    1.4247 H   0  0  0  0  0  0  0  0  0  0  0  0
  -90.0465   28.2441   -0.2862 O   0  0  0  0  0  0  0  0  0  0  0  0
  -91.9382   23.7808   -2.0134 C   0  0  0  0  0  0  0  0  0  0  0  0
  -92.6641   24.8432   -1.5144 C   0  0  0  0  0  0  0  0  0  0  0  0
  -91.9966   25.9885   -1.0843 C   0  0  0  0  0  0  0  0  0  0  0  0
  -90.6412   26.0293   -1.1681 C   0  0  0  0  0  0  0  0  0  0  0  0
  -89.7713   27.0783   -0.7934 C   0  0  0  0  0  0  0  0  0  0  0  0
  -88.5060   26.5580   -1.1054 C   0  0  0  0  0  0  0  0  0  0  0  0
  -88.6245   25.3262   -1.6125 N   0  0  0  0  0  0  0  0  0  0  0  0
  -89.9200   24.9744   -1.6633 C   0  0  0  0  0  0  0  0  0  0  0  0
  -90.5679   23.8117   -2.1021 C   0  0  0  0  0  0  0  0  0  0  0  0
  -87.8256   24.7073   -1.9309 H   0  0  0  0  0  0  0  0  0  0  0  0
  -92.6620   22.6033   -2.4523 C   0  0  0  0  0  0  0  0  0  0  0  0
  -92.7373   21.5675   -1.7128 O   0  0  0  0  0  0  0  0  0  0  0  0
  -94.5033   21.9064   -3.8336 C   0  0  0  0  0  0  0  0  0  0  0  0
  -93.2810   22.5985   -3.6892 O   0  0  0  0  0  0  0  0  0  0  0  0
 30 31  1  0  0  0
 31 28  1  0  0  0
 28 29  2  0  0  0
 28 18  1  0  0  0
 18 19  2  0  0  0
 19 20  1  0  0  0
 20 21  2  0  0  0
 21 22  1  0  0  0
 22 17  1  0  0  0
 17  1  1  0  0  0
  1  2  1  0  0  0
  2  3  2  0  0  0
  3  4  1  0  0  0
  4  5  2  0  0  0
  5  6  1  0  0  0
  6  7  2  0  0  0
  6  8  1  0  0  0
  8  9  2  0  0  0
  9 10  1  0  0  0
 10 11  2  0  0  0
 11 12  1  0  0  0
 11 13  1  0  0  0
 13 14  2  0  0  0
 22 23  2  0  0  0
 23 24  1  0  0  0
 24 25  1  0  0  0
 25 26  2  0  0  0
 26 18  1  0  0  0
 25 21  1  0  0  0
  7  2  1  0  0  0
 14  8  1  0  0  0
 12 15  1  0  0  0
 12 16  1  0  0  0
 24 27  1  0  0  0
M  END
> <minimizedAffinity>
-7.61118

> <CNNscore>
0.3264327943

> <CNNaffinity>
6.0620546341

> <CNN_VS>
1.9788534641

> <CNNaffinity_variance>
0.1579083502

$$$$
[H]c1nc(N([H])[H])c([H])c([H])c1-c1c([H])c([H])c([H])c(C([H])([H])Oc2c([H])n([H])c3c([H])c(C(=O)OC([H])([H])[H])c([H])c([H])c23)c1[H]


 31 34  0  0  0  0  0  0  0  0999 V2000
  -84.6714   33.3204   -0.7965 C   0  0  0  0  0  0  0  0  0  0  0  0
  -84.2122   32.1149   -0.0114 C   0  0  0  0  0  0  0  0  0  0  0  0
  -82.9599   32.0036    0.5089 C   0  0  0  0  0  0  0  0  0  0  0  0
  -82.5809   30.8583    1.2257 C   0  0  0  0  0  0  0  0  0  0  0  0
  -83.4910   29.8511    1.3950 C   0  0  0  0  0  0  0  0  0  0  0  0
  -84.7775   29.9190    0.8836 C   0  0  0  0  0  0  0  0  0  0  0  0
  -85.0979   31.0588    0.1916 C   0  0  0  0  0  0  0  0  0  0  0  0
  -85.7422   28.8479    1.0586 C   0  0  0  0  0  0  0  0  0  0  0  0
  -85.4458   27.7084    1.7707 C   0  0  0  0  0  0  0  0  0  0  0  0
  -86.3734   26.6887    1.9379 C   0  0  0  0  0  0  0  0  0  0  0  0
  -87.6383   26.8020    1.3800 C   0  0  0  0  0  0  0  0  0  0  0  0
  -88.6039   25.7638    1.5429 N   0  0  0  0  0  0  0  0  0  0  0  0
  -87.9044   27.9237    0.6891 N   0  0  0  0  0  0  0  0  0  0  0  0
  -87.0093   28.9150    0.5239 C   0  0  0  0  0  0  0  0  0  0  0  0
  -89.3257   25.7508    2.2898 H   0  0  0  0  0  0  0  0  0  0  0  0
  -88.5877   24.9683    0.8745 H   0  0  0  0  0  0  0  0  0  0  0  0
  -85.8938   33.2969   -1.1616 O   0  0  0  0  0  0  0  0  0  0  0  0
  -89.2752   34.4927   -4.8520 C   0  0  0  0  0  0  0  0  0  0  0  0
  -87.9149   34.7243   -4.8771 C   0  0  0  0  0  0  0  0  0  0  0  0
  -87.1331   34.3379   -3.7899 C   0  0  0  0  0  0  0  0  0  0  0  0
  -87.7339   33.7401   -2.7281 C   0  0  0  0  0  0  0  0  0  0  0  0
  -87.1400   33.2728   -1.5339 C   0  0  0  0  0  0  0  0  0  0  0  0
  -88.2357   32.7605   -0.8226 C   0  0  0  0  0  0  0  0  0  0  0  0
  -89.3595   32.9132   -1.5312 N   0  0  0  0  0  0  0  0  0  0  0  0
  -89.0848   33.5102   -2.7029 C   0  0  0  0  0  0  0  0  0  0  0  0
  -89.8925   33.8894   -3.7836 C   0  0  0  0  0  0  0  0  0  0  0  0
  -90.3295   32.6136   -1.2276 H   0  0  0  0  0  0  0  0  0  0  0  0
  -90.0611   34.9068   -5.9983 C   0  0  0  0  0  0  0  0  0  0  0  0
  -91.2410   34.4590   -6.1795 O   0  0  0  0  0  0  0  0  0  0  0  0
  -90.2853   36.1332   -8.0549 C   0  0  0  0  0  0  0  0  0  0  0  0
  -89.5283   35.7996   -6.9105 O   0  0  0  0  0  0  0  0  0  0  0  0
 30 31  1  0  0  0
 31 28  1  0  0  0
 28 29  2  0  0  0
 28 18  1  0  0  0
 18 19  2  0  0  0
 19 20  1  0  0  0
 20 21  2  0  0  0
 21 22  1  0  0  0
 22 17  1  0  0  0
 17  1  1  0  0  0
  1  2  1  0  0  0
  2  3  2  0  0  0
  3  4  1  0  0  0
  4  5  2  0  0  0
  5  6  1  0  0  0
  6  7  2  0  0  0
  6  8  1  0  0  0
  8  9  2  0  0  0
  9 10  1  0  0  0
 10 11  2  0  0  0
 11 12  1  0  0  0
 11 13  1  0  0  0
 13 14  2  0  0  0
 22 23  2  0  0  0
 23 24  1  0  0  0
 24 25  1  0  0  0
 25 26  2  0  0  0
 26 18  1  0  0  0
 25 21  1  0  0  0
  7  2  1  0  0  0
 14  8  1  0  0  0
 12 15  1  0  0  0
 12 16  1  0  0  0
 24 27  1  0  0  0
M  END
> <minimizedAffinity>
-9.02016

> <CNNscore>
0.3140537739

> <CNNaffinity>
5.8163962364

> <CNN_VS>
1.8266612291

> <CNNaffinity_variance>
0.3326895833

$$$$
[H]c1nc(N([H])[H])c([H])c([H])c1-c1c([H])c([H])c([H])c(C([H])([H])Oc2c([H])n([H])c3c([H])c(C(=O)OC([H])([H])[H])c([H])c([H])c23)c1[H]


 31 34  0  0  0  0  0  0  0  0999 V2000
  -88.8638   31.5728   -1.2051 C   0  0  0  0  0  0  0  0  0  0  0  0
  -87.4659   31.9131   -0.7464 C   0  0  0  0  0  0  0  0  0  0  0  0
  -86.8866   33.1233   -0.9732 C   0  0  0  0  0  0  0  0  0  0  0  0
  -85.5810   33.3868   -0.5314 C   0  0  0  0  0  0  0  0  0  0  0  0
  -84.8956   32.4067    0.1328 C   0  0  0  0  0  0  0  0  0  0  0  0
  -85.4436   31.1591    0.3869 C   0  0  0  0  0  0  0  0  0  0  0  0
  -86.7217   30.9524   -0.0651 C   0  0  0  0  0  0  0  0  0  0  0  0
  -84.7146   30.1168    1.0873 C   0  0  0  0  0  0  0  0  0  0  0  0
  -83.3681   30.2200    1.3517 C   0  0  0  0  0  0  0  0  0  0  0  0
  -82.6767   29.2217    2.0251 C   0  0  0  0  0  0  0  0  0  0  0  0
  -83.3424   28.0818    2.4511 C   0  0  0  0  0  0  0  0  0  0  0  0
  -82.6471   27.0466    3.1451 N   0  0  0  0  0  0  0  0  0  0  0  0
  -84.6567   28.0036    2.1813 N   0  0  0  0  0  0  0  0  0  0  0  0
  -85.3317   28.9681    1.5291 C   0  0  0  0  0  0  0  0  0  0  0  0
  -82.5972   26.9700    4.1798 H   0  0  0  0  0  0  0  0  0  0  0  0
  -82.1581   26.3213    2.5841 H   0  0  0  0  0  0  0  0  0  0  0  0
  -89.0475   30.3515   -1.5261 O   0  0  0  0  0  0  0  0  0  0  0  0
  -92.4011   26.8384   -3.2272 C   0  0  0  0  0  0  0  0  0  0  0  0
  -92.6559   28.1754   -2.9992 C   0  0  0  0  0  0  0  0  0  0  0  0
  -91.6324   28.9995   -2.5348 C   0  0  0  0  0  0  0  0  0  0  0  0
  -90.4037   28.4619   -2.3175 C   0  0  0  0  0  0  0  0  0  0  0  0
  -89.2349   29.1066   -1.8533 C   0  0  0  0  0  0  0  0  0  0  0  0
  -88.2955   28.0645   -1.8278 C   0  0  0  0  0  0  0  0  0  0  0  0
  -88.8597   26.9231   -2.2368 N   0  0  0  0  0  0  0  0  0  0  0  0
  -90.1504   27.1342   -2.5437 C   0  0  0  0  0  0  0  0  0  0  0  0
  -91.1628   26.2849   -3.0106 C   0  0  0  0  0  0  0  0  0  0  0  0
  -88.3746   25.9840   -2.3127 H   0  0  0  0  0  0  0  0  0  0  0  0
  -93.4870   26.0072   -3.7098 C   0  0  0  0  0  0  0  0  0  0  0  0
  -94.4765   26.5181   -4.3306 O   0  0  0  0  0  0  0  0  0  0  0  0
  -94.1944   24.1039   -2.4210 C   0  0  0  0  0  0  0  0  0  0  0  0
  -93.4538   24.6410   -3.4966 O   0  0  0  0  0  0  0  0  0  0  0  0
 30 31  1  0  0  0
 31 28  1  0  0  0
 28 29  2  0  0  0
 28 18  1  0  0  0
 18 19  2  0  0  0
 19 20  1  0  0  0
 20 21  2  0  0  0
 21 22  1  0  0  0
 22 17  1  0  0  0
 17  1  1  0  0  0
  1  2  1  0  0  0
  2  3  2  0  0  0
  3  4  1  0  0  0
  4  5  2  0  0  0
  5  6  1  0  0  0
  6  7  2  0  0  0
  6  8  1  0  0  0
  8  9  2  0  0  0
  9 10  1  0  0  0
 10 11  2  0  0  0
 11 12  1  0  0  0
 11 13  1  0  0  0
 13 14  2  0  0  0
 22 23  2  0  0  0
 23 24  1  0  0  0
 24 25  1  0  0  0
 25 26  2  0  0  0
 26 18  1  0  0  0
 25 21  1  0  0  0
  7  2  1  0  0  0
 14  8  1  0  0  0
 12 15  1  0  0  0
 12 16  1  0  0  0
 24 27  1  0  0  0
M  END
> <minimizedAffinity>
-8.33726

> <CNNscore>
0.2857812047

> <CNNaffinity>
6.1127715111

> <CNN_VS>
1.7469152212

> <CNNaffinity_variance>
0.2014518231

$$$$
[H]c1nc(N([H])[H])c([H])c([H])c1-c1c([H])c([H])c([H])c(C([H])([H])Oc2c([H])n([H])c3c([H])c(C(=O)OC([H])([H])[H])c([H])c([H])c23)c1[H]


 31 34  0  0  0  0  0  0  0  0999 V2000
  -84.9377   33.3375   -1.0512 C   0  0  0  0  0  0  0  0  0  0  0  0
  -84.3213   32.2326   -0.2269 C   0  0  0  0  0  0  0  0  0  0  0  0
  -83.0154   32.2348    0.1554 C   0  0  0  0  0  0  0  0  0  0  0  0
  -82.4897   31.1794    0.9163 C   0  0  0  0  0  0  0  0  0  0  0  0
  -83.3109   30.1439    1.2697 C   0  0  0  0  0  0  0  0  0  0  0  0
  -84.6470   30.0975    0.9035 C   0  0  0  0  0  0  0  0  0  0  0  0
  -85.1115   31.1527    0.1611 C   0  0  0  0  0  0  0  0  0  0  0  0
  -85.5177   28.9961    1.2741 C   0  0  0  0  0  0  0  0  0  0  0  0
  -86.8665   29.0091    1.0017 C   0  0  0  0  0  0  0  0  0  0  0  0
  -87.6939   27.9515    1.3552 C   0  0  0  0  0  0  0  0  0  0  0  0
  -87.1667   26.8429    2.0009 C   0  0  0  0  0  0  0  0  0  0  0  0
  -88.0028   25.7469    2.3705 N   0  0  0  0  0  0  0  0  0  0  0  0
  -85.8472   26.8531    2.2563 N   0  0  0  0  0  0  0  0  0  0  0  0
  -85.0407   27.8753    1.9159 C   0  0  0  0  0  0  0  0  0  0  0  0
  -88.1405   24.8968    1.7897 H   0  0  0  0  0  0  0  0  0  0  0  0
  -88.5081   25.7981    3.2771 H   0  0  0  0  0  0  0  0  0  0  0  0
  -86.1408   33.1308   -1.4229 O   0  0  0  0  0  0  0  0  0  0  0  0
  -89.6832   29.6129   -2.6713 C   0  0  0  0  0  0  0  0  0  0  0  0
  -88.3781   29.3679   -2.2953 C   0  0  0  0  0  0  0  0  0  0  0  0
  -87.5403   30.4382   -1.9875 C   0  0  0  0  0  0  0  0  0  0  0  0
  -88.0331   31.7019   -2.0661 C   0  0  0  0  0  0  0  0  0  0  0  0
  -87.3673   32.9201   -1.8016 C   0  0  0  0  0  0  0  0  0  0  0  0
  -88.3635   33.8774   -2.0469 C   0  0  0  0  0  0  0  0  0  0  0  0
  -89.4997   33.2779   -2.4183 N   0  0  0  0  0  0  0  0  0  0  0  0
  -89.3290   31.9455   -2.4396 C   0  0  0  0  0  0  0  0  0  0  0  0
  -90.1912   30.8864   -2.7541 C   0  0  0  0  0  0  0  0  0  0  0  0
  -90.4075   33.7667   -2.6628 H   0  0  0  0  0  0  0  0  0  0  0  0
  -90.5295   28.4780   -2.9856 C   0  0  0  0  0  0  0  0  0  0  0  0
  -91.7908   28.6163   -3.1099 O   0  0  0  0  0  0  0  0  0  0  0  0
  -90.4729   26.1465   -2.3980 C   0  0  0  0  0  0  0  0  0  0  0  0
  -89.9658   27.2261   -3.1538 O   0  0  0  0  0  0  0  0  0  0  0  0
 30 31  1  0  0  0
 31 28  1  0  0  0
 28 29  2  0  0  0
 28 18  1  0  0  0
 18 19  2  0  0  0
 19 20  1  0  0  0
 20 21  2  0  0  0
 21 22  1  0  0  0
 22 17  1  0  0  0
 17  1  1  0  0  0
  1  2  1  0  0  0
  2  3  2  0  0  0
  3  4  1  0  0  0
  4  5  2  0  0  0
  5  6  1  0  0  0
  6  7  2  0  0  0
  6  8  1  0  0  0
  8  9  2  0  0  0
  9 10  1  0  0  0
 10 11  2  0  0  0
 11 12  1  0  0  0
 11 13  1  0  0  0
 13 14  2  0  0  0
 22 23  2  0  0  0
 23 24  1  0  0  0
 24 25  1  0  0  0
 25 26  2  0  0  0
 26 18  1  0  0  0
 25 21  1  0  0  0
  7  2  1  0  0  0
 14  8  1  0  0  0
 12 15  1  0  0  0
 12 16  1  0  0  0
 24 27  1  0  0  0
M  END
> <minimizedAffinity>
-8.83631

> <CNNscore>
0.2682410479

> <CNNaffinity>
6.2590694427

> <CNN_VS>
1.6789393425

> <CNNaffinity_variance>
0.2963091135

$$$$
[H]c1nc(N([H])[H])c([H])c([H])c1-c1c([H])c([H])c([H])c(C([H])([H])Oc2c([H])n([H])c3c([H])c(C(=O)OC([H])([H])[H])c([H])c([H])c23)c1[H]


 31 34  0  0  0  0  0  0  0  0999 V2000
  -88.1624   31.9643   -2.0057 C   0  0  0  0  0  0  0  0  0  0  0  0
  -86.8758   32.2542   -1.2703 C   0  0  0  0  0  0  0  0  0  0  0  0
  -86.2532   33.4633   -1.3163 C   0  0  0  0  0  0  0  0  0  0  0  0
  -85.0546   33.6791   -0.6192 C   0  0  0  0  0  0  0  0  0  0  0  0
  -84.5182   32.6535    0.1101 C   0  0  0  0  0  0  0  0  0  0  0  0
  -85.1155   31.4051    0.1868 C   0  0  0  0  0  0  0  0  0  0  0  0
  -86.2847   31.2459   -0.5120 C   0  0  0  0  0  0  0  0  0  0  0  0
  -84.5437   30.3146    0.9565 C   0  0  0  0  0  0  0  0  0  0  0  0
  -83.1963   30.2398    1.2256 C   0  0  0  0  0  0  0  0  0  0  0  0
  -82.6554   29.1965    1.9653 C   0  0  0  0  0  0  0  0  0  0  0  0
  -83.4779   28.1927    2.4551 C   0  0  0  0  0  0  0  0  0  0  0  0
  -82.9385   27.1137    3.2177 N   0  0  0  0  0  0  0  0  0  0  0  0
  -84.7899   28.2873    2.1793 N   0  0  0  0  0  0  0  0  0  0  0  0
  -85.3195   29.2961    1.4631 C   0  0  0  0  0  0  0  0  0  0  0  0
  -82.8998   27.0954    4.2555 H   0  0  0  0  0  0  0  0  0  0  0  0
  -82.5590   26.2922    2.7068 H   0  0  0  0  0  0  0  0  0  0  0  0
  -88.3877   32.7068   -3.0188 O   0  0  0  0  0  0  0  0  0  0  0  0
  -91.6991   33.9442   -6.7585 C   0  0  0  0  0  0  0  0  0  0  0  0
  -91.8813   32.9846   -5.7835 C   0  0  0  0  0  0  0  0  0  0  0  0
  -90.8811   32.7696   -4.8371 C   0  0  0  0  0  0  0  0  0  0  0  0
  -89.7466   33.5145   -4.8995 C   0  0  0  0  0  0  0  0  0  0  0  0
  -88.6172   33.4638   -4.0514 C   0  0  0  0  0  0  0  0  0  0  0  0
  -87.7773   34.4478   -4.5946 C   0  0  0  0  0  0  0  0  0  0  0  0
  -88.3583   35.0177   -5.6557 N   0  0  0  0  0  0  0  0  0  0  0  0
  -89.5653   34.4674   -5.8677 C   0  0  0  0  0  0  0  0  0  0  0  0
  -90.5561   34.7024   -6.8307 C   0  0  0  0  0  0  0  0  0  0  0  0
  -87.9417   35.7890   -6.2510 H   0  0  0  0  0  0  0  0  0  0  0  0
  -92.7582   34.1436   -7.7289 C   0  0  0  0  0  0  0  0  0  0  0  0
  -92.6551   35.0322   -8.6373 O   0  0  0  0  0  0  0  0  0  0  0  0
  -94.9927   33.8126   -6.9033 C   0  0  0  0  0  0  0  0  0  0  0  0
  -93.8979   33.3618   -7.6727 O   0  0  0  0  0  0  0  0  0  0  0  0
 30 31  1  0  0  0
 31 28  1  0  0  0
 28 29  2  0  0  0
 28 18  1  0  0  0
 18 19  2  0  0  0
 19 20  1  0  0  0
 20 21  2  0  0  0
 21 22  1  0  0  0
 22 17  1  0  0  0
 17  1  1  0  0  0
  1  2  1  0  0  0
  2  3  2  0  0  0
  3  4  1  0  0  0
  4  5  2  0  0  0
  5  6  1  0  0  0
  6  7  2  0  0  0
  6  8  1  0  0  0
  8  9  2  0  0  0
  9 10  1  0  0  0
 10 11  2  0  0  0
 11 12  1  0  0  0
 11 13  1  0  0  0
 13 14  2  0  0  0
 22 23  2  0  0  0
 23 24  1  0  0  0
 24 25  1  0  0  0
 25 26  2  0  0  0
 26 18  1  0  0  0
 25 21  1  0  0  0
  7  2  1  0  0  0
 14  8  1  0  0  0
 12 15  1  0  0  0
 12 16  1  0  0  0
 24 27  1  0  0  0
M  END
> <minimizedAffinity>
-7.71738

> <CNNscore>
0.2609110475

> <CNNaffinity>
5.8098478317

> <CNN_VS>
1.5158535242

> <CNNaffinity_variance>
0.0994026214

$$$$
[H]c1nc(N([H])[H])c([H])c([H])c1-c1c([H])c([H])c([H])c(C([H])([H])Oc2c([H])n([H])c3c([H])c(C(=O)OC([H])([H])[H])c([H])c([H])c23)c1[H]


 31 34  0  0  0  0  0  0  0  0999 V2000
  -85.1841   33.4275   -0.2435 C   0  0  0  0  0  0  0  0  0  0  0  0
  -84.6323   32.1451    0.3320 C   0  0  0  0  0  0  0  0  0  0  0  0
  -83.3358   32.0058    0.7207 C   0  0  0  0  0  0  0  0  0  0  0  0
  -82.8712   30.7893    1.2438 C   0  0  0  0  0  0  0  0  0  0  0  0
  -83.7427   29.7411    1.3579 C   0  0  0  0  0  0  0  0  0  0  0  0
  -85.0716   29.8351    0.9752 C   0  0  0  0  0  0  0  0  0  0  0  0
  -85.4755   31.0447    0.4707 C   0  0  0  0  0  0  0  0  0  0  0  0
  -85.9957   28.7211    1.0913 C   0  0  0  0  0  0  0  0  0  0  0  0
  -87.2284   28.7291    0.4797 C   0  0  0  0  0  0  0  0  0  0  0  0
  -88.1068   27.6595    0.5913 C   0  0  0  0  0  0  0  0  0  0  0  0
  -87.7516   26.5435    1.3346 C   0  0  0  0  0  0  0  0  0  0  0  0
  -88.6421   25.4352    1.4589 N   0  0  0  0  0  0  0  0  0  0  0  0
  -86.5431   26.5589    1.9225 N   0  0  0  0  0  0  0  0  0  0  0  0
  -85.6879   27.5927    1.8178 C   0  0  0  0  0  0  0  0  0  0  0  0
  -88.6152   24.5944    0.8495 H   0  0  0  0  0  0  0  0  0  0  0  0
  -89.3651   25.4668    2.2047 H   0  0  0  0  0  0  0  0  0  0  0  0
  -85.9663   33.2824   -1.2412 O   0  0  0  0  0  0  0  0  0  0  0  0
  -90.1801   30.9584   -3.0647 C   0  0  0  0  0  0  0  0  0  0  0  0
  -89.6389   30.8082   -1.8041 C   0  0  0  0  0  0  0  0  0  0  0  0
  -88.4857   31.5131   -1.4641 C   0  0  0  0  0  0  0  0  0  0  0  0
  -87.9215   32.3343   -2.3878 C   0  0  0  0  0  0  0  0  0  0  0  0
  -86.7638   33.1345   -2.2581 C   0  0  0  0  0  0  0  0  0  0  0  0
  -86.6715   33.7520   -3.5148 C   0  0  0  0  0  0  0  0  0  0  0  0
  -87.6762   33.3521   -4.3016 N   0  0  0  0  0  0  0  0  0  0  0  0
  -88.4587   32.4836   -3.6397 C   0  0  0  0  0  0  0  0  0  0  0  0
  -89.6176   31.7857   -4.0058 C   0  0  0  0  0  0  0  0  0  0  0  0
  -87.8436   33.6643   -5.3003 H   0  0  0  0  0  0  0  0  0  0  0  0
  -91.3801   30.2109   -3.3879 C   0  0  0  0  0  0  0  0  0  0  0  0
  -91.3386   29.2205   -4.1897 O   0  0  0  0  0  0  0  0  0  0  0  0
  -93.2824   29.6247   -2.0382 C   0  0  0  0  0  0  0  0  0  0  0  0
  -92.5888   30.5731   -2.8213 O   0  0  0  0  0  0  0  0  0  0  0  0
 30 31  1  0  0  0
 31 28  1  0  0  0
 28 29  2  0  0  0
 28 18  1  0  0  0
 18 19  2  0  0  0
 19 20  1  0  0  0
 20 21  2  0  0  0
 21 22  1  0  0  0
 22 17  1  0  0  0
 17  1  1  0  0  0
  1  2  1  0  0  0
  2  3  2  0  0  0
  3  4  1  0  0  0
  4  5  2  0  0  0
  5  6  1  0  0  0
  6  7  2  0  0  0
  6  8  1  0  0  0
  8  9  2  0  0  0
  9 10  1  0  0  0
 10 11  2  0  0  0
 11 12  1  0  0  0
 11 13  1  0  0  0
 13 14  2  0  0  0
 22 23  2  0  0  0
 23 24  1  0  0  0
 24 25  1  0  0  0
 25 26  2  0  0  0
 26 18  1  0  0  0
 25 21  1  0  0  0
  7  2  1  0  0  0
 14  8  1  0  0  0
 12 15  1  0  0  0
 12 16  1  0  0  0
 24 27  1  0  0  0
M  END
> <minimizedAffinity>
-8.43302

> <CNNscore>
0.2473173589

> <CNNaffinity>
6.2572531700

> <CNN_VS>
1.5475273132

> <CNNaffinity_variance>
0.2264668494

$$$$
[H]c1nc(N([H])[H])c([H])c([H])c1-c1c([H])c([H])c([H])c(C([H])([H])Oc2c([H])n([H])c3c([H])c(C(=O)OC([H])([H])[H])c([H])c([H])c23)c1[H]


 31 34  0  0  0  0  0  0  0  0999 V2000
  -84.2123   28.9685    2.0467 C   0  0  0  0  0  0  0  0  0  0  0  0
  -83.9872   30.2227    1.2364 C   0  0  0  0  0  0  0  0  0  0  0  0
  -82.7696   30.8185    1.1174 C   0  0  0  0  0  0  0  0  0  0  0  0
  -82.6152   31.9877    0.3570 C   0  0  0  0  0  0  0  0  0  0  0  0
  -83.7096   32.5229   -0.2654 C   0  0  0  0  0  0  0  0  0  0  0  0
  -84.9694   31.9522   -0.1730 C   0  0  0  0  0  0  0  0  0  0  0  0
  -85.0668   30.8111    0.5813 C   0  0  0  0  0  0  0  0  0  0  0  0
  -86.1323   32.5228   -0.8292 C   0  0  0  0  0  0  0  0  0  0  0  0
  -87.4126   32.1214   -0.5236 C   0  0  0  0  0  0  0  0  0  0  0  0
  -88.5213   32.6730   -1.1518 C   0  0  0  0  0  0  0  0  0  0  0  0
  -88.3557   33.6562   -2.1161 C   0  0  0  0  0  0  0  0  0  0  0  0
  -89.4844   34.2343   -2.7708 N   0  0  0  0  0  0  0  0  0  0  0  0
  -87.0963   34.0316   -2.3976 N   0  0  0  0  0  0  0  0  0  0  0  0
  -86.0183   33.5005   -1.7919 C   0  0  0  0  0  0  0  0  0  0  0  0
  -89.9475   35.1132   -2.4674 H   0  0  0  0  0  0  0  0  0  0  0  0
  -89.8711   33.7487   -3.6043 H   0  0  0  0  0  0  0  0  0  0  0  0
  -85.2322   28.2800    1.7092 O   0  0  0  0  0  0  0  0  0  0  0  0
  -88.9601   27.5885   -1.7703 C   0  0  0  0  0  0  0  0  0  0  0  0
  -87.9725   28.5519   -1.8041 C   0  0  0  0  0  0  0  0  0  0  0  0
  -87.0315   28.6060   -0.7775 C   0  0  0  0  0  0  0  0  0  0  0  0
  -87.1116   27.7039    0.2353 C   0  0  0  0  0  0  0  0  0  0  0  0
  -86.2719   27.5780    1.3650 C   0  0  0  0  0  0  0  0  0  0  0  0
  -86.8332   26.4887    2.0485 C   0  0  0  0  0  0  0  0  0  0  0  0
  -87.8963   26.0236    1.3839 N   0  0  0  0  0  0  0  0  0  0  0  0
  -88.0924   26.7473    0.2692 C   0  0  0  0  0  0  0  0  0  0  0  0
  -89.0502   26.6722   -0.7511 C   0  0  0  0  0  0  0  0  0  0  0  0
  -88.5039   25.2073    1.6794 H   0  0  0  0  0  0  0  0  0  0  0  0
  -89.9244   27.5587   -2.8530 C   0  0  0  0  0  0  0  0  0  0  0  0
  -90.2800   26.4550   -3.3830 O   0  0  0  0  0  0  0  0  0  0  0  0
  -91.5976   29.2757   -2.6621 C   0  0  0  0  0  0  0  0  0  0  0  0
  -90.4691   28.7408   -3.3210 O   0  0  0  0  0  0  0  0  0  0  0  0
 30 31  1  0  0  0
 31 28  1  0  0  0
 28 29  2  0  0  0
 28 18  1  0  0  0
 18 19  2  0  0  0
 19 20  1  0  0  0
 20 21  2  0  0  0
 21 22  1  0  0  0
 22 17  1  0  0  0
 17  1  1  0  0  0
  1  2  1  0  0  0
  2  3  2  0  0  0
  3  4  1  0  0  0
  4  5  2  0  0  0
  5  6  1  0  0  0
  6  7  2  0  0  0
  6  8  1  0  0  0
  8  9  2  0  0  0
  9 10  1  0  0  0
 10 11  2  0  0  0
 11 12  1  0  0  0
 11 13  1  0  0  0
 13 14  2  0  0  0
 22 23  2  0  0  0
 23 24  1  0  0  0
 24 25  1  0  0  0
 25 26  2  0  0  0
 26 18  1  0  0  0
 25 21  1  0  0  0
  7  2  1  0  0  0
 14  8  1  0  0  0
 12 15  1  0  0  0
 12 16  1  0  0  0
 24 27  1  0  0  0
M  END
> <minimizedAffinity>
-9.42961

> <CNNscore>
0.2334942222

> <CNNaffinity>
5.9748029709

> <CNN_VS>
1.3950819969

> <CNNaffinity_variance>
0.4270981848

$$$$
[H]c1nc(N([H])[H])c([H])c([H])c1-c1c([H])c([H])c([H])c(C([H])([H])Oc2c([H])n([H])c3c([H])c(C(=O)OC([H])([H])[H])c([H])c([H])c23)c1[H]


 31 34  0  0  0  0  0  0  0  0999 V2000
  -83.4070   31.2519    0.9264 C   0  0  0  0  0  0  0  0  0  0  0  0
  -83.6404   29.8680    1.4837 C   0  0  0  0  0  0  0  0  0  0  0  0
  -82.6604   29.1342    2.0776 C   0  0  0  0  0  0  0  0  0  0  0  0
  -82.9282   27.8492    2.5738 C   0  0  0  0  0  0  0  0  0  0  0  0
  -84.1928   27.3419    2.4516 C   0  0  0  0  0  0  0  0  0  0  0  0
  -85.2230   28.0513    1.8544 C   0  0  0  0  0  0  0  0  0  0  0  0
  -84.9096   29.3016    1.3865 C   0  0  0  0  0  0  0  0  0  0  0  0
  -86.5641   27.5111    1.7199 C   0  0  0  0  0  0  0  0  0  0  0  0
  -87.6206   27.9885    2.4612 C   0  0  0  0  0  0  0  0  0  0  0  0
  -88.9018   27.4706    2.3260 C   0  0  0  0  0  0  0  0  0  0  0  0
  -89.1446   26.4441    1.4252 C   0  0  0  0  0  0  0  0  0  0  0  0
  -90.4556   25.9009    1.2732 N   0  0  0  0  0  0  0  0  0  0  0  0
  -88.0975   25.9944    0.7127 N   0  0  0  0  0  0  0  0  0  0  0  0
  -86.8538   26.4927    0.8397 C   0  0  0  0  0  0  0  0  0  0  0  0
  -91.1357   26.2122    0.5524 H   0  0  0  0  0  0  0  0  0  0  0  0
  -90.7531   25.1460    1.9224 H   0  0  0  0  0  0  0  0  0  0  0  0
  -84.4078   31.7729    0.3304 O   0  0  0  0  0  0  0  0  0  0  0  0
  -89.2448   31.0939   -1.2897 C   0  0  0  0  0  0  0  0  0  0  0  0
  -88.4639   30.1714   -0.6234 C   0  0  0  0  0  0  0  0  0  0  0  0
  -87.1650   30.5133   -0.2514 C   0  0  0  0  0  0  0  0  0  0  0  0
  -86.6991   31.7526   -0.5561 C   0  0  0  0  0  0  0  0  0  0  0  0
  -85.4280   32.3039   -0.2772 C   0  0  0  0  0  0  0  0  0  0  0  0
  -85.5237   33.5941   -0.8207 C   0  0  0  0  0  0  0  0  0  0  0  0
  -86.7317   33.7787   -1.3639 N   0  0  0  0  0  0  0  0  0  0  0  0
  -87.4742   32.6688   -1.2179 C   0  0  0  0  0  0  0  0  0  0  0  0
  -88.7834   32.3492   -1.6027 C   0  0  0  0  0  0  0  0  0  0  0  0
  -87.0680   34.6625   -1.8420 H   0  0  0  0  0  0  0  0  0  0  0  0
  -90.5917   30.7076   -1.6634 C   0  0  0  0  0  0  0  0  0  0  0  0
  -91.2218   31.3323   -2.5789 O   0  0  0  0  0  0  0  0  0  0  0  0
  -92.4076   29.1344   -1.5560 C   0  0  0  0  0  0  0  0  0  0  0  0
  -91.2059   29.6478   -1.0210 O   0  0  0  0  0  0  0  0  0  0  0  0
 30 31  1  0  0  0
 31 28  1  0  0  0
 28 29  2  0  0  0
 28 18  1  0  0  0
 18 19  2  0  0  0
 19 20  1  0  0  0
 20 21  2  0  0  0
 21 22  1  0  0  0
 22 17  1  0  0  0
 17  1  1  0  0  0
  1  2  1  0  0  0
  2  3  2  0  0  0
  3  4  1  0  0  0
  4  5  2  0  0  0
  5  6  1  0  0  0
  6  7  2  0  0  0
  6  8  1  0  0  0
  8  9  2  0  0  0
  9 10  1  0  0  0
 10 11  2  0  0  0
 11 12  1  0  0  0
 11 13  1  0  0  0
 13 14  2  0  0  0
 22 23  2  0  0  0
 23 24  1  0  0  0
 24 25  1  0  0  0
 25 26  2  0  0  0
 26 18  1  0  0  0
 25 21  1  0  0  0
  7  2  1  0  0  0
 14  8  1  0  0  0
 12 15  1  0  0  0
 12 16  1  0  0  0
 24 27  1  0  0  0
M  END
> <minimizedAffinity>
-9.08820

> <CNNscore>
0.2074019909

> <CNNaffinity>
6.0666642189

> <CNN_VS>
1.2582381964

> <CNNaffinity_variance>
0.4585967660

$$$$
[H]c1nc(N([H])[H])c([H])c([H])c1-c1c([H])c([H])c([H])c(C([H])([H])Oc2c([H])n([H])c3c([H])c(C(=O)OC([H])([H])[H])c([H])c([H])c23)c1[H]


 31 34  0  0  0  0  0  0  0  0999 V2000
  -84.5922   31.4820    2.1331 C   0  0  0  0  0  0  0  0  0  0  0  0
  -84.5819   29.9725    2.1706 C   0  0  0  0  0  0  0  0  0  0  0  0
  -83.4615   29.2462    2.4332 C   0  0  0  0  0  0  0  0  0  0  0  0
  -83.5042   27.8437    2.4498 C   0  0  0  0  0  0  0  0  0  0  0  0
  -84.6919   27.2138    2.1970 C   0  0  0  0  0  0  0  0  0  0  0  0
  -85.8588   27.9106    1.9243 C   0  0  0  0  0  0  0  0  0  0  0  0
  -85.7638   29.2786    1.9204 C   0  0  0  0  0  0  0  0  0  0  0  0
  -87.1186   27.2423    1.6509 C   0  0  0  0  0  0  0  0  0  0  0  0
  -88.2556   27.5021    2.3811 C   0  0  0  0  0  0  0  0  0  0  0  0
  -89.4586   26.8626    2.1130 C   0  0  0  0  0  0  0  0  0  0  0  0
  -89.5377   25.9335    1.0861 C   0  0  0  0  0  0  0  0  0  0  0  0
  -90.7664   25.2678    0.7967 N   0  0  0  0  0  0  0  0  0  0  0  0
  -88.4144   25.6965    0.3873 N   0  0  0  0  0  0  0  0  0  0  0  0
  -87.2459   26.3133    0.6427 C   0  0  0  0  0  0  0  0  0  0  0  0
  -91.4470   25.5859    0.0793 H   0  0  0  0  0  0  0  0  0  0  0  0
  -90.9994   24.4101    1.3351 H   0  0  0  0  0  0  0  0  0  0  0  0
  -84.9165   31.9949    1.0106 O   0  0  0  0  0  0  0  0  0  0  0  0
  -88.6175   32.5594   -2.5201 C   0  0  0  0  0  0  0  0  0  0  0  0
  -88.7084   31.8491   -1.3403 C   0  0  0  0  0  0  0  0  0  0  0  0
  -87.6080   31.7930   -0.4869 C   0  0  0  0  0  0  0  0  0  0  0  0
  -86.4684   32.4426   -0.8407 C   0  0  0  0  0  0  0  0  0  0  0  0
  -85.2470   32.5177   -0.1337 C   0  0  0  0  0  0  0  0  0  0  0  0
  -84.4507   33.3107   -0.9740 C   0  0  0  0  0  0  0  0  0  0  0  0
  -85.1388   33.6643   -2.0648 N   0  0  0  0  0  0  0  0  0  0  0  0
  -86.3779   33.1478   -2.0123 C   0  0  0  0  0  0  0  0  0  0  0  0
  -87.4703   33.2194   -2.8873 C   0  0  0  0  0  0  0  0  0  0  0  0
  -84.7751   34.2618   -2.8607 H   0  0  0  0  0  0  0  0  0  0  0  0
  -89.7796   32.5983   -3.3868 C   0  0  0  0  0  0  0  0  0  0  0  0
  -90.8019   31.8761   -3.1442 O   0  0  0  0  0  0  0  0  0  0  0  0
  -90.7197   34.4853   -4.5442 C   0  0  0  0  0  0  0  0  0  0  0  0
  -89.7845   33.4287   -4.4930 O   0  0  0  0  0  0  0  0  0  0  0  0
 30 31  1  0  0  0
 31 28  1  0  0  0
 28 29  2  0  0  0
 28 18  1  0  0  0
 18 19  2  0  0  0
 19 20  1  0  0  0
 20 21  2  0  0  0
 21 22  1  0  0  0
 22 17  1  0  0  0
 17  1  1  0  0  0
  1  2  1  0  0  0
  2  3  2  0  0  0
  3  4  1  0  0  0
  4  5  2  0  0  0
  5  6  1  0  0  0
  6  7  2  0  0  0
  6  8  1  0  0  0
  8  9  2  0  0  0
  9 10  1  0  0  0
 10 11  2  0  0  0
 11 12  1  0  0  0
 11 13  1  0  0  0
 13 14  2  0  0  0
 22 23  2  0  0  0
 23 24  1  0  0  0
 24 25  1  0  0  0
 25 26  2  0  0  0
 26 18  1  0  0  0
 25 21  1  0  0  0
  7  2  1  0  0  0
 14  8  1  0  0  0
 12 15  1  0  0  0
 12 16  1  0  0  0
 24 27  1  0  0  0
M  END
> <minimizedAffinity>
-8.85378

> <CNNscore>
0.2026143521

> <CNNaffinity>
6.0105867386

> <CNN_VS>
1.2178311348

> <CNNaffinity_variance>
0.5371668339

$$$$
[H]c1nc(N([H])c2nc(C([H])([H])[H])nc3c([H])c(-c4c([H])oc([H])c4[H])n([H])c23)c(F)c([H])c1[H]


 25 28  0  0  0  0  0  0  0  0999 V2000
  -82.5104   31.2572    0.3371 C   0  0  0  0  0  0  0  0  0  0  0  0
  -83.9711   31.1159    0.1930 C   0  0  0  0  0  0  0  0  0  0  0  0
  -84.7355   32.1909   -0.1182 N   0  0  0  0  0  0  0  0  0  0  0  0
  -86.0698   32.1128   -0.2604 C   0  0  0  0  0  0  0  0  0  0  0  0
  -86.6507   30.8701   -0.0741 C   0  0  0  0  0  0  0  0  0  0  0  0
  -87.9195   30.4289   -0.1339 N   0  0  0  0  0  0  0  0  0  0  0  0
  -87.9965   29.1143    0.1268 C   0  0  0  0  0  0  0  0  0  0  0  0
  -86.7176   28.6601    0.3716 C   0  0  0  0  0  0  0  0  0  0  0  0
  -85.8909   29.7548    0.2448 C   0  0  0  0  0  0  0  0  0  0  0  0
  -84.5672   29.9094    0.3701 N   0  0  0  0  0  0  0  0  0  0  0  0
  -88.7448   31.0425   -0.3576 H   0  0  0  0  0  0  0  0  0  0  0  0
  -89.2157   28.3093    0.1476 C   0  0  0  0  0  0  0  0  0  0  0  0
  -90.0073   28.0113    1.2262 C   0  0  0  0  0  0  0  0  0  0  0  0
  -91.0363   27.2225    0.7258 C   0  0  0  0  0  0  0  0  0  0  0  0
  -90.8650   27.0625   -0.5717 O   0  0  0  0  0  0  0  0  0  0  0  0
  -89.7904   27.6975   -0.9441 C   0  0  0  0  0  0  0  0  0  0  0  0
  -86.8830   33.2199   -0.5840 N   0  0  0  0  0  0  0  0  0  0  0  0
  -87.0303   33.9657    0.1244 H   0  0  0  0  0  0  0  0  0  0  0  0
  -87.5231   33.3769   -1.8433 C   0  0  0  0  0  0  0  0  0  0  0  0
  -86.8105   33.6847   -2.9526 N   0  0  0  0  0  0  0  0  0  0  0  0
  -87.3955   33.8398   -4.1638 C   0  0  0  0  0  0  0  0  0  0  0  0
  -88.7593   33.6946   -4.3506 C   0  0  0  0  0  0  0  0  0  0  0  0
  -89.5092   33.3797   -3.2307 C   0  0  0  0  0  0  0  0  0  0  0  0
  -88.8805   33.2286   -2.0101 C   0  0  0  0  0  0  0  0  0  0  0  0
  -89.6484   32.9160   -0.9144 F   0  0  0  0  0  0  0  0  0  0  0  0
  1  2  1  0  0  0
  2  3  2  0  0  0
  3  4  1  0  0  0
  4 17  1  0  0  0
 17 19  1  0  0  0
 19 20  2  0  0  0
 20 21  1  0  0  0
 21 22  2  0  0  0
 22 23  1  0  0  0
 23 24  2  0  0  0
 24 25  1  0  0  0
  4  5  2  0  0  0
  5  6  1  0  0  0
  6  7  1  0  0  0
  7  8  2  0  0  0
  8  9  1  0  0  0
  9 10  2  0  0  0
  7 12  1  0  0  0
 12 13  1  0  0  0
 13 14  2  0  0  0
 14 15  1  0  0  0
 15 16  1  0  0  0
 10  2  1  0  0  0
 16 12  2  0  0  0
 24 19  1  0  0  0
  9  5  1  0  0  0
 17 18  1  0  0  0
  6 11  1  0  0  0
M  END
> <minimizedAffinity>
-7.32056

> <CNNscore>
0.3090325296

> <CNNaffinity>
6.4558410645

> <CNN_VS>
1.9950648546

> <CNNaffinity_variance>
0.2714509070

$$$$
[H]c1nc(N([H])c2nc(C([H])([H])[H])nc3c([H])c(-c4c([H])oc([H])c4[H])n([H])c23)c(F)c([H])c1[H]


 25 28  0  0  0  0  0  0  0  0999 V2000
  -87.2822   35.0520   -4.4435 C   0  0  0  0  0  0  0  0  0  0  0  0
  -87.2711   33.8872   -3.5393 C   0  0  0  0  0  0  0  0  0  0  0  0
  -86.7289   33.9867   -2.3011 N   0  0  0  0  0  0  0  0  0  0  0  0
  -86.6951   32.9542   -1.4412 C   0  0  0  0  0  0  0  0  0  0  0  0
  -87.2446   31.7587   -1.8717 C   0  0  0  0  0  0  0  0  0  0  0  0
  -87.3837   30.5504   -1.2983 N   0  0  0  0  0  0  0  0  0  0  0  0
  -87.9934   29.6822   -2.1210 C   0  0  0  0  0  0  0  0  0  0  0  0
  -88.2728   30.3454   -3.2974 C   0  0  0  0  0  0  0  0  0  0  0  0
  -87.8054   31.6309   -3.1335 C   0  0  0  0  0  0  0  0  0  0  0  0
  -87.8029   32.7028   -3.9352 N   0  0  0  0  0  0  0  0  0  0  0  0
  -87.0537   30.3202   -0.3258 H   0  0  0  0  0  0  0  0  0  0  0  0
  -88.3048   28.2859   -1.8238 C   0  0  0  0  0  0  0  0  0  0  0  0
  -87.5841   27.4098   -1.0547 C   0  0  0  0  0  0  0  0  0  0  0  0
  -88.2959   26.2164   -1.0841 C   0  0  0  0  0  0  0  0  0  0  0  0
  -89.3740   26.3757   -1.8262 O   0  0  0  0  0  0  0  0  0  0  0  0
  -89.4062   27.5965   -2.2796 C   0  0  0  0  0  0  0  0  0  0  0  0
  -86.1354   33.0375   -0.1484 N   0  0  0  0  0  0  0  0  0  0  0  0
  -86.5253   33.7207    0.5304 H   0  0  0  0  0  0  0  0  0  0  0  0
  -85.0511   32.2279    0.2866 C   0  0  0  0  0  0  0  0  0  0  0  0
  -85.2561   31.1766    1.1147 N   0  0  0  0  0  0  0  0  0  0  0  0
  -84.2411   30.3899    1.5438 C   0  0  0  0  0  0  0  0  0  0  0  0
  -82.9271   30.6059    1.1661 C   0  0  0  0  0  0  0  0  0  0  0  0
  -82.6925   31.6754    0.3194 C   0  0  0  0  0  0  0  0  0  0  0  0
  -83.7509   32.4578   -0.0994 C   0  0  0  0  0  0  0  0  0  0  0  0
  -83.4903   33.5132   -0.9397 F   0  0  0  0  0  0  0  0  0  0  0  0
  1  2  1  0  0  0
  2  3  2  0  0  0
  3  4  1  0  0  0
  4 17  1  0  0  0
 17 19  1  0  0  0
 19 20  2  0  0  0
 20 21  1  0  0  0
 21 22  2  0  0  0
 22 23  1  0  0  0
 23 24  2  0  0  0
 24 25  1  0  0  0
  4  5  2  0  0  0
  5  6  1  0  0  0
  6  7  1  0  0  0
  7  8  2  0  0  0
  8  9  1  0  0  0
  9 10  2  0  0  0
  7 12  1  0  0  0
 12 13  1  0  0  0
 13 14  2  0  0  0
 14 15  1  0  0  0
 15 16  1  0  0  0
 10  2  1  0  0  0
 16 12  2  0  0  0
 24 19  1  0  0  0
  9  5  1  0  0  0
 17 18  1  0  0  0
  6 11  1  0  0  0
M  END
> <minimizedAffinity>
-8.08103

> <CNNscore>
0.2642751634

> <CNNaffinity>
6.1814689636

> <CNN_VS>
1.6336086988

> <CNNaffinity_variance>
0.2328186780

$$$$
[H]c1nc(N([H])c2nc(C([H])([H])[H])nc3c([H])c(-c4c([H])oc([H])c4[H])n([H])c23)c(F)c([H])c1[H]


 25 28  0  0  0  0  0  0  0  0999 V2000
  -83.0768   31.2749    1.0911 C   0  0  0  0  0  0  0  0  0  0  0  0
  -84.3871   31.5321    0.4657 C   0  0  0  0  0  0  0  0  0  0  0  0
  -85.4303   30.6973    0.6937 N   0  0  0  0  0  0  0  0  0  0  0  0
  -86.6431   30.8894    0.1471 C   0  0  0  0  0  0  0  0  0  0  0  0
  -86.7950   31.9926   -0.6752 C   0  0  0  0  0  0  0  0  0  0  0  0
  -87.8343   32.4847   -1.3724 N   0  0  0  0  0  0  0  0  0  0  0  0
  -87.4967   33.6011   -2.0372 C   0  0  0  0  0  0  0  0  0  0  0  0
  -86.1697   33.8634   -1.7690 C   0  0  0  0  0  0  0  0  0  0  0  0
  -85.7437   32.8618   -0.9245 C   0  0  0  0  0  0  0  0  0  0  0  0
  -84.5645   32.6062   -0.3449 N   0  0  0  0  0  0  0  0  0  0  0  0
  -88.7903   32.0451   -1.3907 H   0  0  0  0  0  0  0  0  0  0  0  0
  -88.3767   34.3954   -2.8915 C   0  0  0  0  0  0  0  0  0  0  0  0
  -88.2157   35.6994   -3.2817 C   0  0  0  0  0  0  0  0  0  0  0  0
  -89.3146   35.9865   -4.0826 C   0  0  0  0  0  0  0  0  0  0  0  0
  -90.0811   34.9166   -4.1624 O   0  0  0  0  0  0  0  0  0  0  0  0
  -89.5488   33.9544   -3.4641 C   0  0  0  0  0  0  0  0  0  0  0  0
  -87.7414   30.0322    0.3720 N   0  0  0  0  0  0  0  0  0  0  0  0
  -88.6658   30.4432    0.6091 H   0  0  0  0  0  0  0  0  0  0  0  0
  -87.6555   28.6156    0.2918 C   0  0  0  0  0  0  0  0  0  0  0  0
  -87.9583   27.9640   -0.8556 N   0  0  0  0  0  0  0  0  0  0  0  0
  -87.8849   26.6159   -0.9585 C   0  0  0  0  0  0  0  0  0  0  0  0
  -87.4959   25.8133    0.1000 C   0  0  0  0  0  0  0  0  0  0  0  0
  -87.1811   26.4571    1.2841 C   0  0  0  0  0  0  0  0  0  0  0  0
  -87.2668   27.8338    1.3548 C   0  0  0  0  0  0  0  0  0  0  0  0
  -86.9486   28.4477    2.5421 F   0  0  0  0  0  0  0  0  0  0  0  0
  1  2  1  0  0  0
  2  3  2  0  0  0
  3  4  1  0  0  0
  4 17  1  0  0  0
 17 19  1  0  0  0
 19 20  2  0  0  0
 20 21  1  0  0  0
 21 22  2  0  0  0
 22 23  1  0  0  0
 23 24  2  0  0  0
 24 25  1  0  0  0
  4  5  2  0  0  0
  5  6  1  0  0  0
  6  7  1  0  0  0
  7  8  2  0  0  0
  8  9  1  0  0  0
  9 10  2  0  0  0
  7 12  1  0  0  0
 12 13  1  0  0  0
 13 14  2  0  0  0
 14 15  1  0  0  0
 15 16  1  0  0  0
 10  2  1  0  0  0
 16 12  2  0  0  0
 24 19  1  0  0  0
  9  5  1  0  0  0
 17 18  1  0  0  0
  6 11  1  0  0  0
M  END
> <minimizedAffinity>
-7.21064

> <CNNscore>
0.2596850395

> <CNNaffinity>
6.5195264816

> <CNN_VS>
1.6930234432

> <CNNaffinity_variance>
0.1906397641

$$$$
[H]c1nc(N([H])c2nc(C([H])([H])[H])nc3c([H])c(-c4c([H])oc([H])c4[H])n([H])c23)c(F)c([H])c1[H]


 25 28  0  0  0  0  0  0  0  0999 V2000
  -83.0957   31.7186    1.2013 C   0  0  0  0  0  0  0  0  0  0  0  0
  -84.4153   31.7670    0.5451 C   0  0  0  0  0  0  0  0  0  0  0  0
  -85.3223   30.7826    0.7578 N   0  0  0  0  0  0  0  0  0  0  0  0
  -86.5373   30.7820    0.1830 C   0  0  0  0  0  0  0  0  0  0  0  0
  -86.8385   31.8439   -0.6524 C   0  0  0  0  0  0  0  0  0  0  0  0
  -87.9249   32.1658   -1.3766 N   0  0  0  0  0  0  0  0  0  0  0  0
  -87.7483   33.3171   -2.0441 C   0  0  0  0  0  0  0  0  0  0  0  0
  -86.4841   33.7826   -1.7493 C   0  0  0  0  0  0  0  0  0  0  0  0
  -85.9283   32.8635   -0.8865 C   0  0  0  0  0  0  0  0  0  0  0  0
  -84.7375   32.7963   -0.2790 N   0  0  0  0  0  0  0  0  0  0  0  0
  -88.8010   31.5837   -1.4118 H   0  0  0  0  0  0  0  0  0  0  0  0
  -88.7203   33.9612   -2.9246 C   0  0  0  0  0  0  0  0  0  0  0  0
  -88.8503   35.2982   -3.1970 C   0  0  0  0  0  0  0  0  0  0  0  0
  -89.9144   35.3951   -4.0857 C   0  0  0  0  0  0  0  0  0  0  0  0
  -90.3868   34.1877   -4.3257 O   0  0  0  0  0  0  0  0  0  0  0  0
  -89.6965   33.3145   -3.6491 C   0  0  0  0  0  0  0  0  0  0  0  0
  -87.4952   29.7669    0.3917 N   0  0  0  0  0  0  0  0  0  0  0  0
  -87.5485   29.3023    1.3196 H   0  0  0  0  0  0  0  0  0  0  0  0
  -88.4067   29.3356   -0.6101 C   0  0  0  0  0  0  0  0  0  0  0  0
  -89.6988   29.7397   -0.5958 N   0  0  0  0  0  0  0  0  0  0  0  0
  -90.5872   29.3436   -1.5377 C   0  0  0  0  0  0  0  0  0  0  0  0
  -90.2360   28.5004   -2.5777 C   0  0  0  0  0  0  0  0  0  0  0  0
  -88.9198   28.0739   -2.6136 C   0  0  0  0  0  0  0  0  0  0  0  0
  -88.0396   28.4970   -1.6369 C   0  0  0  0  0  0  0  0  0  0  0  0
  -86.7387   28.0587   -1.6960 F   0  0  0  0  0  0  0  0  0  0  0  0
  1  2  1  0  0  0
  2  3  2  0  0  0
  3  4  1  0  0  0
  4 17  1  0  0  0
 17 19  1  0  0  0
 19 20  2  0  0  0
 20 21  1  0  0  0
 21 22  2  0  0  0
 22 23  1  0  0  0
 23 24  2  0  0  0
 24 25  1  0  0  0
  4  5  2  0  0  0
  5  6  1  0  0  0
  6  7  1  0  0  0
  7  8  2  0  0  0
  8  9  1  0  0  0
  9 10  2  0  0  0
  7 12  1  0  0  0
 12 13  1  0  0  0
 13 14  2  0  0  0
 14 15  1  0  0  0
 15 16  1  0  0  0
 10  2  1  0  0  0
 16 12  2  0  0  0
 24 19  1  0  0  0
  9  5  1  0  0  0
 17 18  1  0  0  0
  6 11  1  0  0  0
M  END
> <minimizedAffinity>
-7.03966

> <CNNscore>
0.2514581084

> <CNNaffinity>
6.4371309280

> <CNN_VS>
1.6186687946

> <CNNaffinity_variance>
0.3675538301

$$$$
[H]c1nc(N([H])c2nc(C([H])([H])[H])nc3c([H])c(-c4c([H])oc([H])c4[H])n([H])c23)c(F)c([H])c1[H]


 25 28  0  0  0  0  0  0  0  0999 V2000
  -83.1770   29.6979    1.8636 C   0  0  0  0  0  0  0  0  0  0  0  0
  -84.3468   30.0763    1.0496 C   0  0  0  0  0  0  0  0  0  0  0  0
  -85.3284   29.1754    0.8011 N   0  0  0  0  0  0  0  0  0  0  0  0
  -86.4135   29.4725    0.0655 C   0  0  0  0  0  0  0  0  0  0  0  0
  -86.4971   30.7578   -0.4416 C   0  0  0  0  0  0  0  0  0  0  0  0
  -87.4110   31.3912   -1.1979 N   0  0  0  0  0  0  0  0  0  0  0  0
  -87.0524   32.6615   -1.4429 C   0  0  0  0  0  0  0  0  0  0  0  0
  -85.8423   32.8829   -0.8195 C   0  0  0  0  0  0  0  0  0  0  0  0
  -85.5065   31.6981   -0.2019 C   0  0  0  0  0  0  0  0  0  0  0  0
  -84.4549   31.3296    0.5398 N   0  0  0  0  0  0  0  0  0  0  0  0
  -88.2948   30.9419   -1.5507 H   0  0  0  0  0  0  0  0  0  0  0  0
  -87.8079   33.6346   -2.2285 C   0  0  0  0  0  0  0  0  0  0  0  0
  -89.1590   33.6625   -2.4570 C   0  0  0  0  0  0  0  0  0  0  0  0
  -89.3781   34.7775   -3.2571 C   0  0  0  0  0  0  0  0  0  0  0  0
  -88.2257   35.3748   -3.4891 O   0  0  0  0  0  0  0  0  0  0  0  0
  -87.2737   34.7177   -2.8901 C   0  0  0  0  0  0  0  0  0  0  0  0
  -87.4459   28.5490   -0.2044 N   0  0  0  0  0  0  0  0  0  0  0  0
  -87.3503   27.9027   -1.0124 H   0  0  0  0  0  0  0  0  0  0  0  0
  -88.6289   28.4498    0.5774 C   0  0  0  0  0  0  0  0  0  0  0  0
  -88.6269   27.7945    1.7622 N   0  0  0  0  0  0  0  0  0  0  0  0
  -89.7395   27.6854    2.5260 C   0  0  0  0  0  0  0  0  0  0  0  0
  -90.9526   28.2352    2.1489 C   0  0  0  0  0  0  0  0  0  0  0  0
  -90.9794   28.9103    0.9410 C   0  0  0  0  0  0  0  0  0  0  0  0
  -89.8261   29.0028    0.1864 C   0  0  0  0  0  0  0  0  0  0  0  0
  -89.8803   29.6786   -1.0087 F   0  0  0  0  0  0  0  0  0  0  0  0
  1  2  1  0  0  0
  2  3  2  0  0  0
  3  4  1  0  0  0
  4 17  1  0  0  0
 17 19  1  0  0  0
 19 20  2  0  0  0
 20 21  1  0  0  0
 21 22  2  0  0  0
 22 23  1  0  0  0
 23 24  2  0  0  0
 24 25  1  0  0  0
  4  5  2  0  0  0
  5  6  1  0  0  0
  6  7  1  0  0  0
  7  8  2  0  0  0
  8  9  1  0  0  0
  9 10  2  0  0  0
  7 12  1  0  0  0
 12 13  1  0  0  0
 13 14  2  0  0  0
 14 15  1  0  0  0
 15 16  1  0  0  0
 10  2  1  0  0  0
 16 12  2  0  0  0
 24 19  1  0  0  0
  9  5  1  0  0  0
 17 18  1  0  0  0
  6 11  1  0  0  0
M  END
> <minimizedAffinity>
-7.62692

> <CNNscore>
0.2301129699

> <CNNaffinity>
6.5158081055

> <CNN_VS>
1.4993720055

> <CNNaffinity_variance>
0.2027199566

$$$$
[H]c1nc(N([H])c2nc(C([H])([H])[H])nc3c([H])c(-c4c([H])oc([H])c4[H])n([H])c23)c(F)c([H])c1[H]


 25 28  0  0  0  0  0  0  0  0999 V2000
  -88.6533   35.6863   -3.7432 C   0  0  0  0  0  0  0  0  0  0  0  0
  -88.2772   34.5868   -2.8355 C   0  0  0  0  0  0  0  0  0  0  0  0
  -89.2028   33.6800   -2.4381 N   0  0  0  0  0  0  0  0  0  0  0  0
  -88.9090   32.6609   -1.6124 C   0  0  0  0  0  0  0  0  0  0  0  0
  -87.6003   32.5659   -1.1712 C   0  0  0  0  0  0  0  0  0  0  0  0
  -86.9625   31.7026   -0.3612 N   0  0  0  0  0  0  0  0  0  0  0  0
  -85.6656   32.0217   -0.2249 C   0  0  0  0  0  0  0  0  0  0  0  0
  -85.4304   33.1510   -0.9806 C   0  0  0  0  0  0  0  0  0  0  0  0
  -86.6345   33.4807   -1.5630 C   0  0  0  0  0  0  0  0  0  0  0  0
  -87.0014   34.4694   -2.3873 N   0  0  0  0  0  0  0  0  0  0  0  0
  -87.4273   30.8815    0.1048 H   0  0  0  0  0  0  0  0  0  0  0  0
  -84.6805   31.3022    0.5792 C   0  0  0  0  0  0  0  0  0  0  0  0
  -83.3276   31.2207    0.3752 C   0  0  0  0  0  0  0  0  0  0  0  0
  -82.8429   30.4258    1.4071 C   0  0  0  0  0  0  0  0  0  0  0  0
  -83.8484   30.0581    2.1767 O   0  0  0  0  0  0  0  0  0  0  0  0
  -84.9539   30.5643    1.7093 C   0  0  0  0  0  0  0  0  0  0  0  0
  -89.8580   31.7068   -1.1872 N   0  0  0  0  0  0  0  0  0  0  0  0
  -90.7745   32.0312   -0.8207 H   0  0  0  0  0  0  0  0  0  0  0  0
  -89.6294   30.3046   -1.2318 C   0  0  0  0  0  0  0  0  0  0  0  0
  -89.0145   29.7333   -2.2942 N   0  0  0  0  0  0  0  0  0  0  0  0
  -88.7847   28.4006   -2.3616 C   0  0  0  0  0  0  0  0  0  0  0  0
  -89.1619   27.5329   -1.3513 C   0  0  0  0  0  0  0  0  0  0  0  0
  -89.7925   28.0939   -0.2544 C   0  0  0  0  0  0  0  0  0  0  0  0
  -90.0113   29.4572   -0.2178 C   0  0  0  0  0  0  0  0  0  0  0  0
  -90.6394   29.9883    0.8828 F   0  0  0  0  0  0  0  0  0  0  0  0
  1  2  1  0  0  0
  2  3  2  0  0  0
  3  4  1  0  0  0
  4 17  1  0  0  0
 17 19  1  0  0  0
 19 20  2  0  0  0
 20 21  1  0  0  0
 21 22  2  0  0  0
 22 23  1  0  0  0
 23 24  2  0  0  0
 24 25  1  0  0  0
  4  5  2  0  0  0
  5  6  1  0  0  0
  6  7  1  0  0  0
  7  8  2  0  0  0
  8  9  1  0  0  0
  9 10  2  0  0  0
  7 12  1  0  0  0
 12 13  1  0  0  0
 13 14  2  0  0  0
 14 15  1  0  0  0
 15 16  1  0  0  0
 10  2  1  0  0  0
 16 12  2  0  0  0
 24 19  1  0  0  0
  9  5  1  0  0  0
 17 18  1  0  0  0
  6 11  1  0  0  0
M  END
> <minimizedAffinity>
-7.66371

> <CNNscore>
0.2084219307

> <CNNaffinity>
6.2129893303

> <CNN_VS>
1.2949231863

> <CNNaffinity_variance>
0.0843326449

$$$$
[H]c1nc(N([H])c2nc(C([H])([H])[H])nc3c([H])c(-c4c([H])oc([H])c4[H])n([H])c23)c(F)c([H])c1[H]


 25 28  0  0  0  0  0  0  0  0999 V2000
  -82.8406   29.2139    2.0764 C   0  0  0  0  0  0  0  0  0  0  0  0
  -84.0499   29.6286    1.3416 C   0  0  0  0  0  0  0  0  0  0  0  0
  -85.1019   28.7825    1.2214 N   0  0  0  0  0  0  0  0  0  0  0  0
  -86.2251   29.1142    0.5619 C   0  0  0  0  0  0  0  0  0  0  0  0
  -86.2732   30.3769   -0.0034 C   0  0  0  0  0  0  0  0  0  0  0  0
  -87.2075   31.0319   -0.7150 N   0  0  0  0  0  0  0  0  0  0  0  0
  -86.7945   32.2633   -1.0545 C   0  0  0  0  0  0  0  0  0  0  0  0
  -85.5249   32.4349   -0.5441 C   0  0  0  0  0  0  0  0  0  0  0  0
  -85.2106   31.2613    0.1053 C   0  0  0  0  0  0  0  0  0  0  0  0
  -84.1244   30.8608    0.7773 N   0  0  0  0  0  0  0  0  0  0  0  0
  -88.1437   30.6246   -0.9707 H   0  0  0  0  0  0  0  0  0  0  0  0
  -87.5531   33.2451   -1.8260 C   0  0  0  0  0  0  0  0  0  0  0  0
  -88.9077   33.2876   -2.0309 C   0  0  0  0  0  0  0  0  0  0  0  0
  -89.1289   34.4057   -2.8261 C   0  0  0  0  0  0  0  0  0  0  0  0
  -87.9744   34.9910   -3.0776 O   0  0  0  0  0  0  0  0  0  0  0  0
  -87.0192   34.3233   -2.4958 C   0  0  0  0  0  0  0  0  0  0  0  0
  -87.3309   28.2480    0.4256 N   0  0  0  0  0  0  0  0  0  0  0  0
  -87.2944   27.3059    0.8624 H   0  0  0  0  0  0  0  0  0  0  0  0
  -88.5113   28.5947   -0.2864 C   0  0  0  0  0  0  0  0  0  0  0  0
  -89.5469   29.2035    0.3380 N   0  0  0  0  0  0  0  0  0  0  0  0
  -90.6821   29.5441   -0.3167 C   0  0  0  0  0  0  0  0  0  0  0  0
  -90.8612   29.2940   -1.6663 C   0  0  0  0  0  0  0  0  0  0  0  0
  -89.8157   28.6721   -2.3264 C   0  0  0  0  0  0  0  0  0  0  0  0
  -88.6716   28.3381   -1.6283 C   0  0  0  0  0  0  0  0  0  0  0  0
  -87.6488   27.7216   -2.3077 F   0  0  0  0  0  0  0  0  0  0  0  0
  1  2  1  0  0  0
  2  3  2  0  0  0
  3  4  1  0  0  0
  4 17  1  0  0  0
 17 19  1  0  0  0
 19 20  2  0  0  0
 20 21  1  0  0  0
 21 22  2  0  0  0
 22 23  1  0  0  0
 23 24  2  0  0  0
 24 25  1  0  0  0
  4  5  2  0  0  0
  5  6  1  0  0  0
  6  7  1  0  0  0
  7  8  2  0  0  0
  8  9  1  0  0  0
  9 10  2  0  0  0
  7 12  1  0  0  0
 12 13  1  0  0  0
 13 14  2  0  0  0
 14 15  1  0  0  0
 15 16  1  0  0  0
 10  2  1  0  0  0
 16 12  2  0  0  0
 24 19  1  0  0  0
  9  5  1  0  0  0
 17 18  1  0  0  0
  6 11  1  0  0  0
M  END
> <minimizedAffinity>
-7.52383

> <CNNscore>
0.1785384566

> <CNNaffinity>
6.3368406296

> <CNN_VS>
1.1313697100

> <CNNaffinity_variance>
0.2599979937

$$$$
[H]c1nc(N([H])c2nc(C([H])([H])[H])nc3c([H])c(-c4c([H])oc([H])c4[H])n([H])c23)c(F)c([H])c1[H]


 25 28  0  0  0  0  0  0  0  0999 V2000
  -82.9292   29.3137    2.0358 C   0  0  0  0  0  0  0  0  0  0  0  0
  -84.1157   29.7130    1.2566 C   0  0  0  0  0  0  0  0  0  0  0  0
  -85.1165   28.8273    1.0310 N   0  0  0  0  0  0  0  0  0  0  0  0
  -86.2172   29.1435    0.3273 C   0  0  0  0  0  0  0  0  0  0  0  0
  -86.2967   30.4327   -0.1707 C   0  0  0  0  0  0  0  0  0  0  0  0
  -87.2221   31.0829   -0.8980 N   0  0  0  0  0  0  0  0  0  0  0  0
  -86.8525   32.3494   -1.1464 C   0  0  0  0  0  0  0  0  0  0  0  0
  -85.6226   32.5504   -0.5558 C   0  0  0  0  0  0  0  0  0  0  0  0
  -85.2866   31.3577    0.0462 C   0  0  0  0  0  0  0  0  0  0  0  0
  -84.2201   30.9704    0.7564 N   0  0  0  0  0  0  0  0  0  0  0  0
  -88.1217   30.6480   -1.2284 H   0  0  0  0  0  0  0  0  0  0  0  0
  -87.6157   33.3373   -1.9058 C   0  0  0  0  0  0  0  0  0  0  0  0
  -87.1326   34.3940   -2.6329 C   0  0  0  0  0  0  0  0  0  0  0  0
  -88.2526   35.0258   -3.1600 C   0  0  0  0  0  0  0  0  0  0  0  0
  -89.3348   34.3822   -2.7687 O   0  0  0  0  0  0  0  0  0  0  0  0
  -88.9873   33.3733   -2.0216 C   0  0  0  0  0  0  0  0  0  0  0  0
  -87.2697   28.2361    0.0815 N   0  0  0  0  0  0  0  0  0  0  0  0
  -87.1386   27.4862   -0.6257 H   0  0  0  0  0  0  0  0  0  0  0  0
  -88.5198   28.2889    0.7561 C   0  0  0  0  0  0  0  0  0  0  0  0
  -89.5453   29.0234    0.2643 N   0  0  0  0  0  0  0  0  0  0  0  0
  -90.7457   29.0907    0.8871 C   0  0  0  0  0  0  0  0  0  0  0  0
  -91.0061   28.4148    2.0666 C   0  0  0  0  0  0  0  0  0  0  0  0
  -89.9725   27.6569    2.5889 C   0  0  0  0  0  0  0  0  0  0  0  0
  -88.7605   27.6101    1.9281 C   0  0  0  0  0  0  0  0  0  0  0  0
  -87.7513   26.8501    2.4681 F   0  0  0  0  0  0  0  0  0  0  0  0
  1  2  1  0  0  0
  2  3  2  0  0  0
  3  4  1  0  0  0
  4 17  1  0  0  0
 17 19  1  0  0  0
 19 20  2  0  0  0
 20 21  1  0  0  0
 21 22  2  0  0  0
 22 23  1  0  0  0
 23 24  2  0  0  0
 24 25  1  0  0  0
  4  5  2  0  0  0
  5  6  1  0  0  0
  6  7  1  0  0  0
  7  8  2  0  0  0
  8  9  1  0  0  0
  9 10  2  0  0  0
  7 12  1  0  0  0
 12 13  1  0  0  0
 13 14  2  0  0  0
 14 15  1  0  0  0
 15 16  1  0  0  0
 10  2  1  0  0  0
 16 12  2  0  0  0
 24 19  1  0  0  0
  9  5  1  0  0  0
 17 18  1  0  0  0
  6 11  1  0  0  0
M  END
> <minimizedAffinity>
-8.00684

> <CNNscore>
0.1748449951

> <CNNaffinity>
6.4887328148

> <CNN_VS>
1.1345224380

> <CNNaffinity_variance>
0.1224133521

$$$$
[H]c1nc(N([H])c2nc(C([H])([H])[H])nc3c([H])c(-c4c([H])oc([H])c4[H])n([H])c23)c(F)c([H])c1[H]


 25 28  0  0  0  0  0  0  0  0999 V2000
  -83.0563   27.7326    2.7803 C   0  0  0  0  0  0  0  0  0  0  0  0
  -84.2000   28.3082    2.0489 C   0  0  0  0  0  0  0  0  0  0  0  0
  -85.3594   27.6154    1.9363 N   0  0  0  0  0  0  0  0  0  0  0  0
  -86.4290   28.0972    1.2802 C   0  0  0  0  0  0  0  0  0  0  0  0
  -86.3045   29.3526    0.7102 C   0  0  0  0  0  0  0  0  0  0  0  0
  -87.1426   30.1282   -0.0000 N   0  0  0  0  0  0  0  0  0  0  0  0
  -86.5647   31.2895   -0.3460 C   0  0  0  0  0  0  0  0  0  0  0  0
  -85.2812   31.2854    0.1585 C   0  0  0  0  0  0  0  0  0  0  0  0
  -85.1293   30.0818    0.8112 C   0  0  0  0  0  0  0  0  0  0  0  0
  -84.1059   29.5371    1.4802 N   0  0  0  0  0  0  0  0  0  0  0  0
  -88.1272   29.8535   -0.2503 H   0  0  0  0  0  0  0  0  0  0  0  0
  -87.1838   32.3643   -1.1182 C   0  0  0  0  0  0  0  0  0  0  0  0
  -88.5173   32.5576   -1.3696 C   0  0  0  0  0  0  0  0  0  0  0  0
  -88.5868   33.7103   -2.1429 C   0  0  0  0  0  0  0  0  0  0  0  0
  -87.3675   34.1726   -2.3382 O   0  0  0  0  0  0  0  0  0  0  0  0
  -86.5122   33.3929   -1.7405 C   0  0  0  0  0  0  0  0  0  0  0  0
  -87.6445   27.3918    1.1518 N   0  0  0  0  0  0  0  0  0  0  0  0
  -87.7030   26.5990    0.4827 H   0  0  0  0  0  0  0  0  0  0  0  0
  -88.8131   27.7079    1.8967 C   0  0  0  0  0  0  0  0  0  0  0  0
  -88.8816   27.4539    3.2248 N   0  0  0  0  0  0  0  0  0  0  0  0
  -89.9825   27.7451    3.9573 C   0  0  0  0  0  0  0  0  0  0  0  0
  -91.1109   28.3211    3.3999 C   0  0  0  0  0  0  0  0  0  0  0  0
  -91.0646   28.5903    2.0430 C   0  0  0  0  0  0  0  0  0  0  0  0
  -89.9258   28.2806    1.3254 C   0  0  0  0  0  0  0  0  0  0  0  0
  -89.9062   28.5582   -0.0201 F   0  0  0  0  0  0  0  0  0  0  0  0
  1  2  1  0  0  0
  2  3  2  0  0  0
  3  4  1  0  0  0
  4 17  1  0  0  0
 17 19  1  0  0  0
 19 20  2  0  0  0
 20 21  1  0  0  0
 21 22  2  0  0  0
 22 23  1  0  0  0
 23 24  2  0  0  0
 24 25  1  0  0  0
  4  5  2  0  0  0
  5  6  1  0  0  0
  6  7  1  0  0  0
  7  8  2  0  0  0
  8  9  1  0  0  0
  9 10  2  0  0  0
  7 12  1  0  0  0
 12 13  1  0  0  0
 13 14  2  0  0  0
 14 15  1  0  0  0
 15 16  1  0  0  0
 10  2  1  0  0  0
 16 12  2  0  0  0
 24 19  1  0  0  0
  9  5  1  0  0  0
 17 18  1  0  0  0
  6 11  1  0  0  0
M  END
> <minimizedAffinity>
-8.00448

> <CNNscore>
0.1690915227

> <CNNaffinity>
6.3473672867

> <CNN_VS>
1.0732860565

> <CNNaffinity_variance>
0.0312950164

$$$$
[H]Oc1c([H])c(N([H])c2nc([H])c(Cl)c(N([H])c3c([H])c([H])c([H])c([H])c3S(=O)(=O)C([H])(F)F)n2)c([H])c([H])c1C#N


 33 35  0  0  0  0  0  0  0  0999 V2000
  -85.6608   33.0010   -0.6762 C   0  0  0  0  0  0  0  0  0  0  0  0
  -84.3948   33.1560   -0.2527 N   0  0  0  0  0  0  0  0  0  0  0  0
  -83.7134   32.1702    0.3424 C   0  0  0  0  0  0  0  0  0  0  0  0
  -84.3454   30.9635    0.5189 C   0  0  0  0  0  0  0  0  0  0  0  0
  -83.4355   29.6614    1.3088 Cl  0  0  0  0  0  0  0  0  0  0  0  0
  -85.6675   30.7622    0.0901 C   0  0  0  0  0  0  0  0  0  0  0  0
  -86.2596   31.7913   -0.4863 N   0  0  0  0  0  0  0  0  0  0  0  0
  -86.3466   34.0507   -1.2953 N   0  0  0  0  0  0  0  0  0  0  0  0
  -86.1497   35.0338   -0.9283 H   0  0  0  0  0  0  0  0  0  0  0  0
  -87.5750   35.2963   -5.7927 O   0  0  0  0  0  0  0  0  0  0  0  0
  -87.8586   34.6306   -4.5965 C   0  0  0  0  0  0  0  0  0  0  0  0
  -87.0068   34.6351   -3.5547 C   0  0  0  0  0  0  0  0  0  0  0  0
  -87.2687   33.9748   -2.3441 C   0  0  0  0  0  0  0  0  0  0  0  0
  -88.4677   33.3074   -2.2724 C   0  0  0  0  0  0  0  0  0  0  0  0
  -89.3415   33.3102   -3.3600 C   0  0  0  0  0  0  0  0  0  0  0  0
  -89.0536   33.9651   -4.5270 C   0  0  0  0  0  0  0  0  0  0  0  0
  -86.7049   35.7858   -5.8549 H   0  0  0  0  0  0  0  0  0  0  0  0
  -89.9920   33.9314   -5.6095 C   0  0  0  0  0  0  0  0  0  0  0  0
  -90.7490   33.8845   -6.4876 N   0  0  0  0  0  0  0  0  0  0  0  0
  -86.2205   29.4934    0.3097 N   0  0  0  0  0  0  0  0  0  0  0  0
  -85.9045   28.9854    1.2045 H   0  0  0  0  0  0  0  0  0  0  0  0
  -87.1533   28.7639   -0.4508 C   0  0  0  0  0  0  0  0  0  0  0  0
  -87.3388   28.9542   -1.7972 C   0  0  0  0  0  0  0  0  0  0  0  0
  -88.2836   28.2683   -2.5673 C   0  0  0  0  0  0  0  0  0  0  0  0
  -89.0670   27.3496   -1.9172 C   0  0  0  0  0  0  0  0  0  0  0  0
  -88.8883   27.1509   -0.5651 C   0  0  0  0  0  0  0  0  0  0  0  0
  -87.9602   27.8197    0.2060 C   0  0  0  0  0  0  0  0  0  0  0  0
  -87.7966   27.4585    1.9057 S   0  0  0  0  0  0  0  0  0  0  0  0
  -86.9953   28.5871    2.5452 O   0  0  0  0  0  0  0  0  0  0  0  0
  -86.9375   26.2238    2.1385 O   0  0  0  0  0  0  0  0  0  0  0  0
  -89.3166   27.3877    2.7759 C   0  0  0  0  0  0  0  0  0  0  0  0
  -89.0664   27.9139    4.0531 F   0  0  0  0  0  0  0  0  0  0  0  0
  -90.1535   28.3509    2.1864 F   0  0  0  0  0  0  0  0  0  0  0  0
 10 11  1  0  0  0
 11 12  2  0  0  0
 12 13  1  0  0  0
 13  8  1  0  0  0
  8  1  1  0  0  0
  1  2  2  0  0  0
  2  3  1  0  0  0
  3  4  2  0  0  0
  4  5  1  0  0  0
  4  6  1  0  0  0
  6 20  1  0  0  0
 20 22  1  0  0  0
 22 23  2  0  0  0
 23 24  1  0  0  0
 24 25  2  0  0  0
 25 26  1  0  0  0
 26 27  2  0  0  0
 27 28  1  0  0  0
 28 29  2  0  0  0
 28 30  2  0  0  0
 28 31  1  0  0  0
 31 32  1  0  0  0
 31 33  1  0  0  0
  6  7  2  0  0  0
 13 14  2  0  0  0
 14 15  1  0  0  0
 15 16  2  0  0  0
 16 18  1  0  0  0
 18 19  3  0  0  0
 16 11  1  0  0  0
  7  1  1  0  0  0
 27 22  1  0  0  0
 10 17  1  0  0  0
  8  9  1  0  0  0
 20 21  1  0  0  0
M  END
> <minimizedAffinity>
-7.74935

> <CNNscore>
0.6852396727

> <CNNaffinity>
7.3565139771

> <CNN_VS>
5.0409750938

> <CNNaffinity_variance>
0.1220556051

$$$$
[H]Oc1c([H])c(N([H])c2nc([H])c(Cl)c(N([H])c3c([H])c([H])c([H])c([H])c3S(=O)(=O)C([H])(F)F)n2)c([H])c([H])c1C#N


 33 35  0  0  0  0  0  0  0  0999 V2000
  -86.2582   33.4576   -1.1268 C   0  0  0  0  0  0  0  0  0  0  0  0
  -86.2390   34.4774   -2.0019 N   0  0  0  0  0  0  0  0  0  0  0  0
  -87.3079   34.8132   -2.7332 C   0  0  0  0  0  0  0  0  0  0  0  0
  -88.4575   34.0790   -2.5715 C   0  0  0  0  0  0  0  0  0  0  0  0
  -89.8705   34.5302   -3.5447 Cl  0  0  0  0  0  0  0  0  0  0  0  0
  -88.5174   33.0061   -1.6672 C   0  0  0  0  0  0  0  0  0  0  0  0
  -87.4144   32.7487   -0.9896 N   0  0  0  0  0  0  0  0  0  0  0  0
  -85.1243   33.1312   -0.3763 N   0  0  0  0  0  0  0  0  0  0  0  0
  -84.3873   33.8956   -0.2651 H   0  0  0  0  0  0  0  0  0  0  0  0
  -86.6809   28.8862    1.3100 O   0  0  0  0  0  0  0  0  0  0  0  0
  -85.6476   29.8038    1.0986 C   0  0  0  0  0  0  0  0  0  0  0  0
  -85.8499   30.9796    0.4759 C   0  0  0  0  0  0  0  0  0  0  0  0
  -84.8295   31.9169    0.2519 C   0  0  0  0  0  0  0  0  0  0  0  0
  -83.5827   31.5672    0.7116 C   0  0  0  0  0  0  0  0  0  0  0  0
  -83.3865   30.3449    1.3551 C   0  0  0  0  0  0  0  0  0  0  0  0
  -84.4054   29.4534    1.5565 C   0  0  0  0  0  0  0  0  0  0  0  0
  -87.5926   29.1316    0.9797 H   0  0  0  0  0  0  0  0  0  0  0  0
  -84.1413   28.2133    2.2243 C   0  0  0  0  0  0  0  0  0  0  0  0
  -83.9467   27.2078    2.7697 N   0  0  0  0  0  0  0  0  0  0  0  0
  -89.7378   32.3242   -1.5702 N   0  0  0  0  0  0  0  0  0  0  0  0
  -90.6228   32.9021   -1.7737 H   0  0  0  0  0  0  0  0  0  0  0  0
  -90.0049   30.9772   -1.2622 C   0  0  0  0  0  0  0  0  0  0  0  0
  -89.9631   30.4753    0.0145 C   0  0  0  0  0  0  0  0  0  0  0  0
  -90.1888   29.1345    0.3420 C   0  0  0  0  0  0  0  0  0  0  0  0
  -90.4683   28.2801   -0.6935 C   0  0  0  0  0  0  0  0  0  0  0  0
  -90.5129   28.7744   -1.9793 C   0  0  0  0  0  0  0  0  0  0  0  0
  -90.2931   30.0940   -2.3161 C   0  0  0  0  0  0  0  0  0  0  0  0
  -90.4128   30.6150   -3.9776 S   0  0  0  0  0  0  0  0  0  0  0  0
  -91.1072   31.9725   -3.9896 O   0  0  0  0  0  0  0  0  0  0  0  0
  -91.3457   29.7210   -4.7819 O   0  0  0  0  0  0  0  0  0  0  0  0
  -88.8676   30.8521   -4.7704 C   0  0  0  0  0  0  0  0  0  0  0  0
  -88.8272   32.1991   -5.1640 F   0  0  0  0  0  0  0  0  0  0  0  0
  -87.8916   30.7796   -3.7615 F   0  0  0  0  0  0  0  0  0  0  0  0
 10 11  1  0  0  0
 11 12  2  0  0  0
 12 13  1  0  0  0
 13  8  1  0  0  0
  8  1  1  0  0  0
  1  2  2  0  0  0
  2  3  1  0  0  0
  3  4  2  0  0  0
  4  5  1  0  0  0
  4  6  1  0  0  0
  6 20  1  0  0  0
 20 22  1  0  0  0
 22 23  2  0  0  0
 23 24  1  0  0  0
 24 25  2  0  0  0
 25 26  1  0  0  0
 26 27  2  0  0  0
 27 28  1  0  0  0
 28 29  2  0  0  0
 28 30  2  0  0  0
 28 31  1  0  0  0
 31 32  1  0  0  0
 31 33  1  0  0  0
  6  7  2  0  0  0
 13 14  2  0  0  0
 14 15  1  0  0  0
 15 16  2  0  0  0
 16 18  1  0  0  0
 18 19  3  0  0  0
 16 11  1  0  0  0
  7  1  1  0  0  0
 27 22  1  0  0  0
 10 17  1  0  0  0
  8  9  1  0  0  0
 20 21  1  0  0  0
M  END
> <minimizedAffinity>
-8.09829

> <CNNscore>
0.5174204707

> <CNNaffinity>
7.1283826828

> <CNN_VS>
3.6883711815

> <CNNaffinity_variance>
0.2786739171

$$$$
[H]Oc1c([H])c(N([H])c2nc([H])c(Cl)c(N([H])c3c([H])c([H])c([H])c([H])c3S(=O)(=O)C([H])(F)F)n2)c([H])c([H])c1C#N


 33 35  0  0  0  0  0  0  0  0999 V2000
  -86.3272   33.0584   -1.0493 C   0  0  0  0  0  0  0  0  0  0  0  0
  -85.9710   33.7168   -2.1654 N   0  0  0  0  0  0  0  0  0  0  0  0
  -86.7942   33.8495   -3.2117 C   0  0  0  0  0  0  0  0  0  0  0  0
  -88.0442   33.2866   -3.1253 C   0  0  0  0  0  0  0  0  0  0  0  0
  -89.1300   33.4666   -4.5167 Cl  0  0  0  0  0  0  0  0  0  0  0  0
  -88.4537   32.5908   -1.9762 C   0  0  0  0  0  0  0  0  0  0  0  0
  -87.5745   32.5112   -0.9950 N   0  0  0  0  0  0  0  0  0  0  0  0
  -85.4440   32.9370    0.0281 N   0  0  0  0  0  0  0  0  0  0  0  0
  -85.1053   33.8459    0.4744 H   0  0  0  0  0  0  0  0  0  0  0  0
  -86.3132   28.5995    1.9561 O   0  0  0  0  0  0  0  0  0  0  0  0
  -85.4156   29.6008    1.5739 C   0  0  0  0  0  0  0  0  0  0  0  0
  -85.8228   30.7441    0.9923 C   0  0  0  0  0  0  0  0  0  0  0  0
  -84.9416   31.7637    0.5998 C   0  0  0  0  0  0  0  0  0  0  0  0
  -83.6096   31.5323    0.8453 C   0  0  0  0  0  0  0  0  0  0  0  0
  -83.2008   30.3426    1.4485 C   0  0  0  0  0  0  0  0  0  0  0  0
  -84.0883   29.3684    1.8185 C   0  0  0  0  0  0  0  0  0  0  0  0
  -87.2854   28.7585    1.7824 H   0  0  0  0  0  0  0  0  0  0  0  0
  -83.6072   28.1672    2.4344 C   0  0  0  0  0  0  0  0  0  0  0  0
  -83.2265   27.1999    2.9499 N   0  0  0  0  0  0  0  0  0  0  0  0
  -89.7503   32.0593   -1.9835 N   0  0  0  0  0  0  0  0  0  0  0  0
  -90.4812   32.5966   -2.5629 H   0  0  0  0  0  0  0  0  0  0  0  0
  -90.2640   30.9062   -1.3613 C   0  0  0  0  0  0  0  0  0  0  0  0
  -90.0682   30.6175   -0.0339 C   0  0  0  0  0  0  0  0  0  0  0  0
  -90.5370   29.4616    0.5986 C   0  0  0  0  0  0  0  0  0  0  0  0
  -91.2356   28.5698   -0.1740 C   0  0  0  0  0  0  0  0  0  0  0  0
  -91.4378   28.8506   -1.5081 C   0  0  0  0  0  0  0  0  0  0  0  0
  -90.9818   29.9866   -2.1442 C   0  0  0  0  0  0  0  0  0  0  0  0
  -91.3305   30.2554   -3.8332 S   0  0  0  0  0  0  0  0  0  0  0  0
  -91.8590   28.9475   -4.4120 O   0  0  0  0  0  0  0  0  0  0  0  0
  -90.0640   30.5231   -4.6336 O   0  0  0  0  0  0  0  0  0  0  0  0
  -92.5733   31.4556   -4.1292 C   0  0  0  0  0  0  0  0  0  0  0  0
  -92.0621   32.3216   -5.1088 F   0  0  0  0  0  0  0  0  0  0  0  0
  -93.6145   30.7884   -4.7975 F   0  0  0  0  0  0  0  0  0  0  0  0
 10 11  1  0  0  0
 11 12  2  0  0  0
 12 13  1  0  0  0
 13  8  1  0  0  0
  8  1  1  0  0  0
  1  2  2  0  0  0
  2  3  1  0  0  0
  3  4  2  0  0  0
  4  5  1  0  0  0
  4  6  1  0  0  0
  6 20  1  0  0  0
 20 22  1  0  0  0
 22 23  2  0  0  0
 23 24  1  0  0  0
 24 25  2  0  0  0
 25 26  1  0  0  0
 26 27  2  0  0  0
 27 28  1  0  0  0
 28 29  2  0  0  0
 28 30  2  0  0  0
 28 31  1  0  0  0
 31 32  1  0  0  0
 31 33  1  0  0  0
  6  7  2  0  0  0
 13 14  2  0  0  0
 14 15  1  0  0  0
 15 16  2  0  0  0
 16 18  1  0  0  0
 18 19  3  0  0  0
 16 11  1  0  0  0
  7  1  1  0  0  0
 27 22  1  0  0  0
 10 17  1  0  0  0
  8  9  1  0  0  0
 20 21  1  0  0  0
M  END
> <minimizedAffinity>
-8.22859

> <CNNscore>
0.4731861353

> <CNNaffinity>
7.0159654617

> <CNN_VS>
3.3198575974

> <CNNaffinity_variance>
0.0803041831

$$$$
[H]Oc1c([H])c(N([H])c2nc([H])c(Cl)c(N([H])c3c([H])c([H])c([H])c([H])c3S(=O)(=O)C([H])(F)F)n2)c([H])c([H])c1C#N


 33 35  0  0  0  0  0  0  0  0999 V2000
  -86.4235   33.1382   -1.0571 C   0  0  0  0  0  0  0  0  0  0  0  0
  -86.3531   33.9396   -2.1337 N   0  0  0  0  0  0  0  0  0  0  0  0
  -87.3856   34.1109   -2.9671 C   0  0  0  0  0  0  0  0  0  0  0  0
  -88.5515   33.4364   -2.6981 C   0  0  0  0  0  0  0  0  0  0  0  0
  -89.9161   33.6686   -3.8077 Cl  0  0  0  0  0  0  0  0  0  0  0  0
  -88.6645   32.5899   -1.5831 C   0  0  0  0  0  0  0  0  0  0  0  0
  -87.5946   32.4829   -0.8178 N   0  0  0  0  0  0  0  0  0  0  0  0
  -85.3266   32.9799   -0.2043 N   0  0  0  0  0  0  0  0  0  0  0  0
  -84.7444   33.8526   -0.0058 H   0  0  0  0  0  0  0  0  0  0  0  0
  -86.4174   28.7002    1.7403 O   0  0  0  0  0  0  0  0  0  0  0  0
  -85.4754   29.6775    1.4060 C   0  0  0  0  0  0  0  0  0  0  0  0
  -85.8168   30.8149    0.7728 C   0  0  0  0  0  0  0  0  0  0  0  0
  -84.8900   31.8106    0.4267 C   0  0  0  0  0  0  0  0  0  0  0  0
  -83.5844   31.5617    0.7753 C   0  0  0  0  0  0  0  0  0  0  0  0
  -83.2438   30.3782    1.4310 C   0  0  0  0  0  0  0  0  0  0  0  0
  -84.1744   29.4275    1.7533 C   0  0  0  0  0  0  0  0  0  0  0  0
  -87.3709   28.8721    1.4914 H   0  0  0  0  0  0  0  0  0  0  0  0
  -83.7629   28.2317    2.4273 C   0  0  0  0  0  0  0  0  0  0  0  0
  -83.4363   27.2528    2.9578 N   0  0  0  0  0  0  0  0  0  0  0  0
  -89.8977   31.9523   -1.3918 N   0  0  0  0  0  0  0  0  0  0  0  0
  -90.4122   32.1780   -0.4736 H   0  0  0  0  0  0  0  0  0  0  0  0
  -90.5996   31.0611   -2.2246 C   0  0  0  0  0  0  0  0  0  0  0  0
  -91.6083   31.4558   -3.0674 C   0  0  0  0  0  0  0  0  0  0  0  0
  -92.3446   30.5851   -3.8773 C   0  0  0  0  0  0  0  0  0  0  0  0
  -92.0236   29.2537   -3.8114 C   0  0  0  0  0  0  0  0  0  0  0  0
  -91.0120   28.8471   -2.9683 C   0  0  0  0  0  0  0  0  0  0  0  0
  -90.2776   29.6948   -2.1650 C   0  0  0  0  0  0  0  0  0  0  0  0
  -88.9916   29.0715   -1.1630 S   0  0  0  0  0  0  0  0  0  0  0  0
  -89.2766   27.5957   -0.9067 O   0  0  0  0  0  0  0  0  0  0  0  0
  -89.0090   29.6931    0.2262 O   0  0  0  0  0  0  0  0  0  0  0  0
  -87.4048   29.1387   -1.9045 C   0  0  0  0  0  0  0  0  0  0  0  0
  -86.6974   28.0238   -1.4275 F   0  0  0  0  0  0  0  0  0  0  0  0
  -87.5931   28.8450   -3.2662 F   0  0  0  0  0  0  0  0  0  0  0  0
 10 11  1  0  0  0
 11 12  2  0  0  0
 12 13  1  0  0  0
 13  8  1  0  0  0
  8  1  1  0  0  0
  1  2  2  0  0  0
  2  3  1  0  0  0
  3  4  2  0  0  0
  4  5  1  0  0  0
  4  6  1  0  0  0
  6 20  1  0  0  0
 20 22  1  0  0  0
 22 23  2  0  0  0
 23 24  1  0  0  0
 24 25  2  0  0  0
 25 26  1  0  0  0
 26 27  2  0  0  0
 27 28  1  0  0  0
 28 29  2  0  0  0
 28 30  2  0  0  0
 28 31  1  0  0  0
 31 32  1  0  0  0
 31 33  1  0  0  0
  6  7  2  0  0  0
 13 14  2  0  0  0
 14 15  1  0  0  0
 15 16  2  0  0  0
 16 18  1  0  0  0
 18 19  3  0  0  0
 16 11  1  0  0  0
  7  1  1  0  0  0
 27 22  1  0  0  0
 10 17  1  0  0  0
  8  9  1  0  0  0
 20 21  1  0  0  0
M  END
> <minimizedAffinity>
-8.52832

> <CNNscore>
0.3865108788

> <CNNaffinity>
6.8853454590

> <CNN_VS>
2.6612608433

> <CNNaffinity_variance>
0.1802904010

$$$$
[H]Oc1c([H])c(N([H])c2nc([H])c(Cl)c(N([H])c3c([H])c([H])c([H])c([H])c3S(=O)(=O)C([H])(F)F)n2)c([H])c([H])c1C#N


 33 35  0  0  0  0  0  0  0  0999 V2000
  -86.3043   32.9184   -1.1539 C   0  0  0  0  0  0  0  0  0  0  0  0
  -86.2557   34.0259   -1.9138 N   0  0  0  0  0  0  0  0  0  0  0  0
  -86.9251   34.1324   -3.0673 C   0  0  0  0  0  0  0  0  0  0  0  0
  -87.6841   33.0625   -3.4746 C   0  0  0  0  0  0  0  0  0  0  0  0
  -88.5687   33.2113   -5.0052 Cl  0  0  0  0  0  0  0  0  0  0  0  0
  -87.7606   31.8879   -2.7086 C   0  0  0  0  0  0  0  0  0  0  0  0
  -87.0667   31.8742   -1.5860 N   0  0  0  0  0  0  0  0  0  0  0  0
  -85.5933   32.8375    0.0475 N   0  0  0  0  0  0  0  0  0  0  0  0
  -85.5529   33.7243    0.6407 H   0  0  0  0  0  0  0  0  0  0  0  0
  -85.7983   28.6533    2.4427 O   0  0  0  0  0  0  0  0  0  0  0  0
  -85.0587   29.6446    1.7910 C   0  0  0  0  0  0  0  0  0  0  0  0
  -85.6403   30.7229    1.2343 C   0  0  0  0  0  0  0  0  0  0  0  0
  -84.9199   31.7311    0.5750 C   0  0  0  0  0  0  0  0  0  0  0  0
  -83.5574   31.5596    0.5251 C   0  0  0  0  0  0  0  0  0  0  0  0
  -82.9672   30.4368    1.1060 C   0  0  0  0  0  0  0  0  0  0  0  0
  -83.7010   29.4717    1.7414 C   0  0  0  0  0  0  0  0  0  0  0  0
  -86.7910   28.7691    2.4850 H   0  0  0  0  0  0  0  0  0  0  0  0
  -83.0370   28.3407    2.3188 C   0  0  0  0  0  0  0  0  0  0  0  0
  -82.5108   27.4129    2.7756 N   0  0  0  0  0  0  0  0  0  0  0  0
  -88.5673   30.8559   -3.2067 N   0  0  0  0  0  0  0  0  0  0  0  0
  -88.1129   30.2066   -3.9350 H   0  0  0  0  0  0  0  0  0  0  0  0
  -89.8947   30.5079   -2.8944 C   0  0  0  0  0  0  0  0  0  0  0  0
  -90.9574   31.3571   -3.0767 C   0  0  0  0  0  0  0  0  0  0  0  0
  -92.2795   31.0484   -2.7408 C   0  0  0  0  0  0  0  0  0  0  0  0
  -92.5098   29.8120   -2.1945 C   0  0  0  0  0  0  0  0  0  0  0  0
  -91.4493   28.9517   -2.0076 C   0  0  0  0  0  0  0  0  0  0  0  0
  -90.1411   29.2430   -2.3349 C   0  0  0  0  0  0  0  0  0  0  0  0
  -88.8825   28.0593   -2.0878 S   0  0  0  0  0  0  0  0  0  0  0  0
  -87.9316   28.1376   -3.2772 O   0  0  0  0  0  0  0  0  0  0  0  0
  -89.4261   26.6389   -2.1483 O   0  0  0  0  0  0  0  0  0  0  0  0
  -87.9019   28.3385   -0.6620 C   0  0  0  0  0  0  0  0  0  0  0  0
  -86.6461   28.7649   -1.1226 F   0  0  0  0  0  0  0  0  0  0  0  0
  -88.4264   29.4855   -0.0413 F   0  0  0  0  0  0  0  0  0  0  0  0
 10 11  1  0  0  0
 11 12  2  0  0  0
 12 13  1  0  0  0
 13  8  1  0  0  0
  8  1  1  0  0  0
  1  2  2  0  0  0
  2  3  1  0  0  0
  3  4  2  0  0  0
  4  5  1  0  0  0
  4  6  1  0  0  0
  6 20  1  0  0  0
 20 22  1  0  0  0
 22 23  2  0  0  0
 23 24  1  0  0  0
 24 25  2  0  0  0
 25 26  1  0  0  0
 26 27  2  0  0  0
 27 28  1  0  0  0
 28 29  2  0  0  0
 28 30  2  0  0  0
 28 31  1  0  0  0
 31 32  1  0  0  0
 31 33  1  0  0  0
  6  7  2  0  0  0
 13 14  2  0  0  0
 14 15  1  0  0  0
 15 16  2  0  0  0
 16 18  1  0  0  0
 18 19  3  0  0  0
 16 11  1  0  0  0
  7  1  1  0  0  0
 27 22  1  0  0  0
 10 17  1  0  0  0
  8  9  1  0  0  0
 20 21  1  0  0  0
M  END
> <minimizedAffinity>
-8.26545

> <CNNscore>
0.3081600666

> <CNNaffinity>
7.0143766403

> <CNN_VS>
2.1615507603

> <CNNaffinity_variance>
0.1515267491

$$$$
[H]Oc1c([H])c(N([H])c2nc([H])c(Cl)c(N([H])c3c([H])c([H])c([H])c([H])c3S(=O)(=O)C([H])(F)F)n2)c([H])c([H])c1C#N


 33 35  0  0  0  0  0  0  0  0999 V2000
  -86.9585   31.8682   -0.5523 C   0  0  0  0  0  0  0  0  0  0  0  0
  -87.3590   32.7309   -1.5019 N   0  0  0  0  0  0  0  0  0  0  0  0
  -88.5444   32.6232   -2.1128 C   0  0  0  0  0  0  0  0  0  0  0  0
  -89.3691   31.5884   -1.7444 C   0  0  0  0  0  0  0  0  0  0  0  0
  -90.9392   31.4522   -2.5589 Cl  0  0  0  0  0  0  0  0  0  0  0  0
  -88.9868   30.6664   -0.7564 C   0  0  0  0  0  0  0  0  0  0  0  0
  -87.8001   30.8522   -0.2094 N   0  0  0  0  0  0  0  0  0  0  0  0
  -85.7132   32.0075    0.0683 N   0  0  0  0  0  0  0  0  0  0  0  0
  -85.3050   32.9933    0.1070 H   0  0  0  0  0  0  0  0  0  0  0  0
  -85.3594   27.4877    1.7215 O   0  0  0  0  0  0  0  0  0  0  0  0
  -84.7888   28.7412    1.4814 C   0  0  0  0  0  0  0  0  0  0  0  0
  -85.4760   29.7418    0.9005 C   0  0  0  0  0  0  0  0  0  0  0  0
  -84.9256   31.0083    0.6491 C   0  0  0  0  0  0  0  0  0  0  0  0
  -83.6184   31.1814    1.0354 C   0  0  0  0  0  0  0  0  0  0  0  0
  -82.9171   30.1355    1.6363 C   0  0  0  0  0  0  0  0  0  0  0  0
  -83.4855   28.9118    1.8663 C   0  0  0  0  0  0  0  0  0  0  0  0
  -86.3109   27.3516    1.4445 H   0  0  0  0  0  0  0  0  0  0  0  0
  -82.7136   27.8765    2.4875 C   0  0  0  0  0  0  0  0  0  0  0  0
  -82.1027   27.0252    2.9860 N   0  0  0  0  0  0  0  0  0  0  0  0
  -89.9014   29.6508   -0.4469 N   0  0  0  0  0  0  0  0  0  0  0  0
  -90.6419   29.8883    0.2973 H   0  0  0  0  0  0  0  0  0  0  0  0
  -90.0279   28.3504   -0.9701 C   0  0  0  0  0  0  0  0  0  0  0  0
  -89.9173   28.0641   -2.3078 C   0  0  0  0  0  0  0  0  0  0  0  0
  -90.0748   26.7872   -2.8560 C   0  0  0  0  0  0  0  0  0  0  0  0
  -90.3581   25.7670   -1.9847 C   0  0  0  0  0  0  0  0  0  0  0  0
  -90.4709   26.0441   -0.6393 C   0  0  0  0  0  0  0  0  0  0  0  0
  -90.3175   27.2982   -0.0854 C   0  0  0  0  0  0  0  0  0  0  0  0
  -90.4457   27.5250    1.6405 S   0  0  0  0  0  0  0  0  0  0  0  0
  -91.4801   26.5342    2.1633 O   0  0  0  0  0  0  0  0  0  0  0  0
  -91.0351   28.8848    1.9871 O   0  0  0  0  0  0  0  0  0  0  0  0
  -88.9668   27.1943    2.5215 C   0  0  0  0  0  0  0  0  0  0  0  0
  -88.1487   28.3237    2.3596 F   0  0  0  0  0  0  0  0  0  0  0  0
  -89.3041   27.2309    3.8856 F   0  0  0  0  0  0  0  0  0  0  0  0
 10 11  1  0  0  0
 11 12  2  0  0  0
 12 13  1  0  0  0
 13  8  1  0  0  0
  8  1  1  0  0  0
  1  2  2  0  0  0
  2  3  1  0  0  0
  3  4  2  0  0  0
  4  5  1  0  0  0
  4  6  1  0  0  0
  6 20  1  0  0  0
 20 22  1  0  0  0
 22 23  2  0  0  0
 23 24  1  0  0  0
 24 25  2  0  0  0
 25 26  1  0  0  0
 26 27  2  0  0  0
 27 28  1  0  0  0
 28 29  2  0  0  0
 28 30  2  0  0  0
 28 31  1  0  0  0
 31 32  1  0  0  0
 31 33  1  0  0  0
  6  7  2  0  0  0
 13 14  2  0  0  0
 14 15  1  0  0  0
 15 16  2  0  0  0
 16 18  1  0  0  0
 18 19  3  0  0  0
 16 11  1  0  0  0
  7  1  1  0  0  0
 27 22  1  0  0  0
 10 17  1  0  0  0
  8  9  1  0  0  0
 20 21  1  0  0  0
M  END
> <minimizedAffinity>
-7.68676

> <CNNscore>
0.3012065887

> <CNNaffinity>
7.0167007446

> <CNN_VS>
2.1134765148

> <CNNaffinity_variance>
0.1167015806

$$$$
[H]Oc1c([H])c(N([H])c2nc([H])c(Cl)c(N([H])c3c([H])c([H])c([H])c([H])c3S(=O)(=O)C([H])(F)F)n2)c([H])c([H])c1C#N


 33 35  0  0  0  0  0  0  0  0999 V2000
  -89.2372   32.1992   -1.5627 C   0  0  0  0  0  0  0  0  0  0  0  0
  -90.0367   31.1506   -1.8224 N   0  0  0  0  0  0  0  0  0  0  0  0
  -89.7535   29.9128   -1.4007 C   0  0  0  0  0  0  0  0  0  0  0  0
  -88.6007   29.7248   -0.6779 C   0  0  0  0  0  0  0  0  0  0  0  0
  -88.2320   28.0809   -0.1223 Cl  0  0  0  0  0  0  0  0  0  0  0  0
  -87.7394   30.7950   -0.3859 C   0  0  0  0  0  0  0  0  0  0  0  0
  -88.1006   31.9793   -0.8429 N   0  0  0  0  0  0  0  0  0  0  0  0
  -89.5607   33.4815   -2.0171 N   0  0  0  0  0  0  0  0  0  0  0  0
  -90.3469   33.9879   -1.5020 H   0  0  0  0  0  0  0  0  0  0  0  0
  -89.8700   35.0888   -6.5567 O   0  0  0  0  0  0  0  0  0  0  0  0
  -89.1634   34.9686   -5.3564 C   0  0  0  0  0  0  0  0  0  0  0  0
  -89.6696   34.3252   -4.2883 C   0  0  0  0  0  0  0  0  0  0  0  0
  -88.9801   34.1912   -3.0731 C   0  0  0  0  0  0  0  0  0  0  0  0
  -87.7314   34.7626   -3.0261 C   0  0  0  0  0  0  0  0  0  0  0  0
  -87.2186   35.4274   -4.1405 C   0  0  0  0  0  0  0  0  0  0  0  0
  -87.9193   35.5395   -5.3109 C   0  0  0  0  0  0  0  0  0  0  0  0
  -90.7799   34.6756   -6.6014 H   0  0  0  0  0  0  0  0  0  0  0  0
  -87.3390   36.2348   -6.4214 C   0  0  0  0  0  0  0  0  0  0  0  0
  -86.8857   36.7951   -7.3308 N   0  0  0  0  0  0  0  0  0  0  0  0
  -86.5923   30.5012    0.3635 N   0  0  0  0  0  0  0  0  0  0  0  0
  -86.6780   29.6900    1.0658 H   0  0  0  0  0  0  0  0  0  0  0  0
  -85.3143   31.0900    0.3387 C   0  0  0  0  0  0  0  0  0  0  0  0
  -85.0043   32.1819   -0.4329 C   0  0  0  0  0  0  0  0  0  0  0  0
  -83.7339   32.7626   -0.5026 C   0  0  0  0  0  0  0  0  0  0  0  0
  -82.7459   32.1898    0.2564 C   0  0  0  0  0  0  0  0  0  0  0  0
  -83.0471   31.0931    1.0349 C   0  0  0  0  0  0  0  0  0  0  0  0
  -84.2953   30.5109    1.1135 C   0  0  0  0  0  0  0  0  0  0  0  0
  -84.5701   29.1448    2.1644 S   0  0  0  0  0  0  0  0  0  0  0  0
  -85.2961   28.0754    1.3555 O   0  0  0  0  0  0  0  0  0  0  0  0
  -85.5463   29.4821    3.2823 O   0  0  0  0  0  0  0  0  0  0  0  0
  -83.1050   28.3910    2.7626 C   0  0  0  0  0  0  0  0  0  0  0  0
  -83.2755   27.0074    2.5967 F   0  0  0  0  0  0  0  0  0  0  0  0
  -82.0938   28.7063    1.8385 F   0  0  0  0  0  0  0  0  0  0  0  0
 10 11  1  0  0  0
 11 12  2  0  0  0
 12 13  1  0  0  0
 13  8  1  0  0  0
  8  1  1  0  0  0
  1  2  2  0  0  0
  2  3  1  0  0  0
  3  4  2  0  0  0
  4  5  1  0  0  0
  4  6  1  0  0  0
  6 20  1  0  0  0
 20 22  1  0  0  0
 22 23  2  0  0  0
 23 24  1  0  0  0
 24 25  2  0  0  0
 25 26  1  0  0  0
 26 27  2  0  0  0
 27 28  1  0  0  0
 28 29  2  0  0  0
 28 30  2  0  0  0
 28 31  1  0  0  0
 31 32  1  0  0  0
 31 33  1  0  0  0
  6  7  2  0  0  0
 13 14  2  0  0  0
 14 15  1  0  0  0
 15 16  2  0  0  0
 16 18  1  0  0  0
 18 19  3  0  0  0
 16 11  1  0  0  0
  7  1  1  0  0  0
 27 22  1  0  0  0
 10 17  1  0  0  0
  8  9  1  0  0  0
 20 21  1  0  0  0
M  END
> <minimizedAffinity>
-8.97829

> <CNNscore>
0.2847057581

> <CNNaffinity>
6.2920751572

> <CNN_VS>
1.7913900614

> <CNNaffinity_variance>
0.5021684170

$$$$
[H]Oc1c([H])c(N([H])c2nc([H])c(Cl)c(N([H])c3c([H])c([H])c([H])c([H])c3S(=O)(=O)C([H])(F)F)n2)c([H])c([H])c1C#N


 33 35  0  0  0  0  0  0  0  0999 V2000
  -88.3164   28.7526   -2.0371 C   0  0  0  0  0  0  0  0  0  0  0  0
  -88.7810   29.6286   -2.9443 N   0  0  0  0  0  0  0  0  0  0  0  0
  -88.5448   30.9427   -2.8567 C   0  0  0  0  0  0  0  0  0  0  0  0
  -87.7993   31.3955   -1.7957 C   0  0  0  0  0  0  0  0  0  0  0  0
  -87.4905   33.1390   -1.6863 Cl  0  0  0  0  0  0  0  0  0  0  0  0
  -87.2961   30.5117   -0.8270 C   0  0  0  0  0  0  0  0  0  0  0  0
  -87.5798   29.2339   -0.9960 N   0  0  0  0  0  0  0  0  0  0  0  0
  -88.5800   27.3845   -2.1564 N   0  0  0  0  0  0  0  0  0  0  0  0
  -88.1462   26.8845   -2.9941 H   0  0  0  0  0  0  0  0  0  0  0  0
  -89.2021   23.1294    0.0330 O   0  0  0  0  0  0  0  0  0  0  0  0
  -89.6363   24.4301   -0.2391 C   0  0  0  0  0  0  0  0  0  0  0  0
  -88.9346   25.2706   -1.0215 C   0  0  0  0  0  0  0  0  0  0  0  0
  -89.3493   26.5803   -1.3094 C   0  0  0  0  0  0  0  0  0  0  0  0
  -90.5370   26.9720   -0.7400 C   0  0  0  0  0  0  0  0  0  0  0  0
  -91.2544   26.0907    0.0695 C   0  0  0  0  0  0  0  0  0  0  0  0
  -90.8198   24.8192    0.3298 C   0  0  0  0  0  0  0  0  0  0  0  0
  -88.3389   22.8342   -0.3773 H   0  0  0  0  0  0  0  0  0  0  0  0
  -91.6012   23.9604    1.1696 C   0  0  0  0  0  0  0  0  0  0  0  0
  -92.2498   23.2687    1.8385 N   0  0  0  0  0  0  0  0  0  0  0  0
  -86.5414   31.0713    0.2128 N   0  0  0  0  0  0  0  0  0  0  0  0
  -87.0724   31.2841    1.1245 H   0  0  0  0  0  0  0  0  0  0  0  0
  -85.1724   31.3922    0.2720 C   0  0  0  0  0  0  0  0  0  0  0  0
  -84.6250   32.4734   -0.3722 C   0  0  0  0  0  0  0  0  0  0  0  0
  -83.2633   32.7925   -0.3586 C   0  0  0  0  0  0  0  0  0  0  0  0
  -82.4365   31.9590    0.3498 C   0  0  0  0  0  0  0  0  0  0  0  0
  -82.9765   30.8706    1.0006 C   0  0  0  0  0  0  0  0  0  0  0  0
  -84.3170   30.5448    0.9959 C   0  0  0  0  0  0  0  0  0  0  0  0
  -84.8944   29.1606    1.8888 S   0  0  0  0  0  0  0  0  0  0  0  0
  -85.4655   28.1656    0.8844 O   0  0  0  0  0  0  0  0  0  0  0  0
  -86.0848   29.5150    2.7684 O   0  0  0  0  0  0  0  0  0  0  0  0
  -83.6463   28.3007    2.7693 C   0  0  0  0  0  0  0  0  0  0  0  0
  -83.9197   26.9330    2.6091 F   0  0  0  0  0  0  0  0  0  0  0  0
  -82.4563   28.4808    2.0433 F   0  0  0  0  0  0  0  0  0  0  0  0
 10 11  1  0  0  0
 11 12  2  0  0  0
 12 13  1  0  0  0
 13  8  1  0  0  0
  8  1  1  0  0  0
  1  2  2  0  0  0
  2  3  1  0  0  0
  3  4  2  0  0  0
  4  5  1  0  0  0
  4  6  1  0  0  0
  6 20  1  0  0  0
 20 22  1  0  0  0
 22 23  2  0  0  0
 23 24  1  0  0  0
 24 25  2  0  0  0
 25 26  1  0  0  0
 26 27  2  0  0  0
 27 28  1  0  0  0
 28 29  2  0  0  0
 28 30  2  0  0  0
 28 31  1  0  0  0
 31 32  1  0  0  0
 31 33  1  0  0  0
  6  7  2  0  0  0
 13 14  2  0  0  0
 14 15  1  0  0  0
 15 16  2  0  0  0
 16 18  1  0  0  0
 18 19  3  0  0  0
 16 11  1  0  0  0
  7  1  1  0  0  0
 27 22  1  0  0  0
 10 17  1  0  0  0
  8  9  1  0  0  0
 20 21  1  0  0  0
M  END
> <minimizedAffinity>
-9.06306

> <CNNscore>
0.2793537974

> <CNNaffinity>
6.5086088181

> <CNN_VS>
1.8182046413

> <CNNaffinity_variance>
0.4111919403

$$$$
[H]Oc1c([H])c(N([H])c2nc([H])c(Cl)c(N([H])c3c([H])c([H])c([H])c([H])c3S(=O)(=O)C([H])(F)F)n2)c([H])c([H])c1C#N


 33 35  0  0  0  0  0  0  0  0999 V2000
  -87.3378   26.9810   -0.3095 C   0  0  0  0  0  0  0  0  0  0  0  0
  -86.9350   26.3521    0.8079 N   0  0  0  0  0  0  0  0  0  0  0  0
  -86.4158   27.0091    1.8514 C   0  0  0  0  0  0  0  0  0  0  0  0
  -86.2974   28.3745    1.7608 C   0  0  0  0  0  0  0  0  0  0  0  0
  -85.6080   29.2386    3.1484 Cl  0  0  0  0  0  0  0  0  0  0  0  0
  -86.7069   29.0681    0.6102 C   0  0  0  0  0  0  0  0  0  0  0  0
  -87.2068   28.3366   -0.3680 N   0  0  0  0  0  0  0  0  0  0  0  0
  -87.8770   26.2662   -1.3836 N   0  0  0  0  0  0  0  0  0  0  0  0
  -87.1888   25.9238   -2.1246 H   0  0  0  0  0  0  0  0  0  0  0  0
  -91.2020   22.8728   -2.2293 O   0  0  0  0  0  0  0  0  0  0  0  0
  -90.8551   24.2151   -2.0501 C   0  0  0  0  0  0  0  0  0  0  0  0
  -89.5908   24.6007   -1.7970 C   0  0  0  0  0  0  0  0  0  0  0  0
  -89.2177   25.9413   -1.6135 C   0  0  0  0  0  0  0  0  0  0  0  0
  -90.2314   26.8641   -1.7079 C   0  0  0  0  0  0  0  0  0  0  0  0
  -91.5379   26.4509   -1.9702 C   0  0  0  0  0  0  0  0  0  0  0  0
  -91.8667   25.1335   -2.1436 C   0  0  0  0  0  0  0  0  0  0  0  0
  -90.4711   22.1930   -2.1632 H   0  0  0  0  0  0  0  0  0  0  0  0
  -93.2272   24.7711   -2.4106 C   0  0  0  0  0  0  0  0  0  0  0  0
  -94.3324   24.4778   -2.6075 N   0  0  0  0  0  0  0  0  0  0  0  0
  -86.5509   30.4607    0.6186 N   0  0  0  0  0  0  0  0  0  0  0  0
  -87.3997   31.0322    0.9524 H   0  0  0  0  0  0  0  0  0  0  0  0
  -85.4406   31.2535    0.2732 C   0  0  0  0  0  0  0  0  0  0  0  0
  -84.2050   31.1105    0.8532 C   0  0  0  0  0  0  0  0  0  0  0  0
  -83.0966   31.9091    0.5536 C   0  0  0  0  0  0  0  0  0  0  0  0
  -83.2751   32.8944   -0.3832 C   0  0  0  0  0  0  0  0  0  0  0  0
  -84.5121   33.0460   -0.9717 C   0  0  0  0  0  0  0  0  0  0  0  0
  -85.6131   32.2653   -0.6862 C   0  0  0  0  0  0  0  0  0  0  0  0
  -87.1228   32.5245   -1.5229 S   0  0  0  0  0  0  0  0  0  0  0  0
  -88.1910   32.8143   -0.4742 O   0  0  0  0  0  0  0  0  0  0  0  0
  -87.6143   31.2548   -2.2032 O   0  0  0  0  0  0  0  0  0  0  0  0
  -87.1178   33.9029   -2.6057 C   0  0  0  0  0  0  0  0  0  0  0  0
  -87.1439   33.3823   -3.9093 F   0  0  0  0  0  0  0  0  0  0  0  0
  -88.3779   34.5119   -2.4744 F   0  0  0  0  0  0  0  0  0  0  0  0
 10 11  1  0  0  0
 11 12  2  0  0  0
 12 13  1  0  0  0
 13  8  1  0  0  0
  8  1  1  0  0  0
  1  2  2  0  0  0
  2  3  1  0  0  0
  3  4  2  0  0  0
  4  5  1  0  0  0
  4  6  1  0  0  0
  6 20  1  0  0  0
 20 22  1  0  0  0
 22 23  2  0  0  0
 23 24  1  0  0  0
 24 25  2  0  0  0
 25 26  1  0  0  0
 26 27  2  0  0  0
 27 28  1  0  0  0
 28 29  2  0  0  0
 28 30  2  0  0  0
 28 31  1  0  0  0
 31 32  1  0  0  0
 31 33  1  0  0  0
  6  7  2  0  0  0
 13 14  2  0  0  0
 14 15  1  0  0  0
 15 16  2  0  0  0
 16 18  1  0  0  0
 18 19  3  0  0  0
 16 11  1  0  0  0
  7  1  1  0  0  0
 27 22  1  0  0  0
 10 17  1  0  0  0
  8  9  1  0  0  0
 20 21  1  0  0  0
M  END
> <minimizedAffinity>
-8.02516

> <CNNscore>
0.2413776070

> <CNNaffinity>
6.3702788353

> <CNN_VS>
1.5376427174

> <CNNaffinity_variance>
0.2322366536

$$$$
